/*---------------------------------------------------------------------------*\
  =========                 |
  \\      /  F ield         | OpenFOAM: The Open Source CFD Toolbox
   \\    /   O peration     | Website:  https://openfoam.org
    \\  /    A nd           | Version:  10
     \\/     M anipulation  |
\*---------------------------------------------------------------------------*/
Build  : 10-0347120b3b9d
Exec   : forensicWindFoam -parallel
Date   : Feb 08 2024
Time   : 00:13:32
Host   : "1c914d9ddb09"
PID    : 381
I/O    : uncollated
Case   : /home/openfoam/run/Lousiana
nProcs : 4
Slaves : 
3
(
"1c914d9ddb09.382"
"1c914d9ddb09.383"
"1c914d9ddb09.384"
)

Pstream initialised with:
    floatTransfer      : 0
    nProcsSimpleSum    : 0
    commsType          : nonBlocking
    polling iterations : 0
sigFpe : Enabling floating point exception trapping (FOAM_SIGFPE).
fileModificationChecking : Monitoring run-time modified files using timeStampMaster (fileModificationSkew 10)
allowSystemOperations : Allowing user-supplied system call operations

// * * * * * * * * * * * * * * * * * * * * * * * * * * * * * * * * * * * * * //
Create time

Create mesh for time = 0


PIMPLE: No convergence criteria found


PIMPLE: Operating solver in transient mode with 1 outer corrector
PIMPLE: Operating solver in PISO mode


Reading thermophysical properties

Selecting thermodynamics package 
{
    type            hePsiThermo;
    mixture         multiComponentMixture;
    transport       sutherland;
    thermo          janaf;
    energy          sensibleEnthalpy;
    equationOfState perfectGas;
    specie          specie;
}

Reading field U

Reading/calculating face flux field phi

Creating turbulence model.

Selecting turbulence model type LES
Selecting LES turbulence model WALE
Selecting LES delta type cubeRootVol
LES
{
    model           WALE;
    delta           cubeRootVol;
    turbulence      on;
    printCoeffs     on;
    kEqnCoeffs
    {
        ck              0.07;
    }
    cubeRootVolCoeffs
    {
        deltaCoeff      1;
    }
    PrandtlCoeffs
    {
        delta           cubeRootVol;
        cubeRootVolCoeffs
        {
            deltaCoeff      1;
        }
        smoothCoeffs
        {
            delta           cubeRootVol;
            cubeRootVolCoeffs
            {
                deltaCoeff      1;
            }
            maxDeltaRatio   1.1;
        }
        Cdelta          0.158;
    }
    vanDriestCoeffs
    {
        delta           cubeRootVol;
        cubeRootVolCoeffs
        {
            deltaCoeff      1;
        }
        smoothCoeffs
        {
            delta           cubeRootVol;
            cubeRootVolCoeffs
            {
                deltaCoeff      1;
            }
            maxDeltaRatio   1.1;
        }
        Aplus           26;
        Cdelta          0.158;
    }
    smoothCoeffs
    {
        delta           cubeRootVol;
        cubeRootVolCoeffs
        {
            deltaCoeff      1;
        }
        maxDeltaRatio   1.1;
    }
    Ck              0.094;
    Ce              1.048;
    Cw              0.325;
}

Creating thermophysical transport model

Selecting thermophysical transport type LES
Selecting default LES thermophysical transport model unityLewisEddyDiffusivity
Creating reaction model

Selecting combustion model none

Reading g

Reading hRef
Calculating field g.h


Reading pRef
Reading field p_rgh

Creating field dpdt

Creating field kinetic energy K

No MRF models present

Creating fvModels from "constant/fvModels"

Selecting finite volume model type radiation
    Name: radiation
Selecting radiationModel none
No fvConstraints present
Courant Number mean: 0.0092474 max: 0.0101477

Starting time loop

Courant Number mean: 0.0092474 max: 0.0101477
deltaT = 0.12
Time = 0.12s

diagonal:  Solving for rho, Initial residual = 0, Final residual = 0, No Iterations 0
DILUPBiCGStab:  Solving for Ux, Initial residual = 1, Final residual = 2.21382e-08, No Iterations 1
DILUPBiCGStab:  Solving for Uy, Initial residual = 0.000722576, Final residual = 6.92462e-08, No Iterations 1
DILUPBiCGStab:  Solving for Uz, Initial residual = 0.000111526, Final residual = 4.64891e-09, No Iterations 1
DILUPBiCGStab:  Solving for O2, Initial residual = 1.14839e-05, Final residual = 3.42142e-09, No Iterations 1
DILUPBiCGStab:  Solving for CO2, Initial residual = 0, Final residual = 0, No Iterations 0
DILUPBiCGStab:  Solving for h, Initial residual = 1, Final residual = 8.33891e-07, No Iterations 1
GAMG:  Solving for p_rgh, Initial residual = 1, Final residual = 0.000284568, No Iterations 5
diagonal:  Solving for rho, Initial residual = 0, Final residual = 0, No Iterations 0
time step continuity errors : sum local = 1.1405e-09, global = -2.95412e-13, cumulative = -2.95412e-13
GAMG:  Solving for p_rgh, Initial residual = 0.00168913, Final residual = 2.24017e-09, No Iterations 7
diagonal:  Solving for rho, Initial residual = 0, Final residual = 0, No Iterations 0
time step continuity errors : sum local = 1.80157e-14, global = 3.94102e-16, cumulative = -2.95018e-13
==================== Some Information 
min/max(T) = 298.15, 300
min/max(rho) = 1.17163, 1.17945
min/max(p) = 101295, 101342
min/max(U) = (0 -0.358131 -0.0302935), (7.23102 0.273703 0.032549)
====================================== 
ExecutionTime = 4.33692 s  ClockTime = 6 s

Courant Number mean: 0.0111335 max: 0.0118033
deltaT = 0.143914
Time = 0.263914s

diagonal:  Solving for rho, Initial residual = 0, Final residual = 0, No Iterations 0
DILUPBiCGStab:  Solving for Ux, Initial residual = 0.317146, Final residual = 9.34684e-08, No Iterations 1
DILUPBiCGStab:  Solving for Uy, Initial residual = 0.0052083, Final residual = 1.44544e-08, No Iterations 1
DILUPBiCGStab:  Solving for Uz, Initial residual = 0.12856, Final residual = 2.55592e-07, No Iterations 1
DILUPBiCGStab:  Solving for O2, Initial residual = 1.08474e-05, Final residual = 4.09265e-09, No Iterations 1
DILUPBiCGStab:  Solving for CO2, Initial residual = 0, Final residual = 0, No Iterations 0
DILUPBiCGStab:  Solving for h, Initial residual = 0.818601, Final residual = 2.39963e-09, No Iterations 1
GAMG:  Solving for p_rgh, Initial residual = 0.489032, Final residual = 0.000330008, No Iterations 4
diagonal:  Solving for rho, Initial residual = 0, Final residual = 0, No Iterations 0
time step continuity errors : sum local = 4.14415e-09, global = -2.08352e-11, cumulative = -2.11302e-11
GAMG:  Solving for p_rgh, Initial residual = 0.00116678, Final residual = 3.76628e-09, No Iterations 8
diagonal:  Solving for rho, Initial residual = 0, Final residual = 0, No Iterations 0
time step continuity errors : sum local = 5.80523e-14, global = -9.67482e-15, cumulative = -2.11399e-11
==================== Some Information 
min/max(T) = 298.15, 300
min/max(rho) = 1.17139, 1.17949
min/max(p) = 101275, 101346
min/max(U) = (0 -0.345397 -0.0214669), (7.24246 0.268085 0.0314427)
====================================== 
ExecutionTime = 7.68996 s  ClockTime = 9 s

Courant Number mean: 0.0133427 max: 0.0139339
deltaT = 0.17253
Time = 0.436444s

diagonal:  Solving for rho, Initial residual = 0, Final residual = 0, No Iterations 0
DILUPBiCGStab:  Solving for Ux, Initial residual = 0.235138, Final residual = 1.28494e-07, No Iterations 1
DILUPBiCGStab:  Solving for Uy, Initial residual = 0.0117265, Final residual = 4.70486e-08, No Iterations 1
DILUPBiCGStab:  Solving for Uz, Initial residual = 0.232094, Final residual = 6.62013e-07, No Iterations 1
DILUPBiCGStab:  Solving for O2, Initial residual = 1.06584e-05, Final residual = 4.70696e-09, No Iterations 1
DILUPBiCGStab:  Solving for CO2, Initial residual = 0, Final residual = 0, No Iterations 0
DILUPBiCGStab:  Solving for h, Initial residual = 0.107793, Final residual = 2.42927e-09, No Iterations 1
GAMG:  Solving for p_rgh, Initial residual = 0.304666, Final residual = 0.000237466, No Iterations 5
diagonal:  Solving for rho, Initial residual = 0, Final residual = 0, No Iterations 0
time step continuity errors : sum local = 4.68869e-09, global = 5.13271e-12, cumulative = -1.60072e-11
GAMG:  Solving for p_rgh, Initial residual = 0.000745568, Final residual = 3.87387e-09, No Iterations 8
diagonal:  Solving for rho, Initial residual = 0, Final residual = 0, No Iterations 0
time step continuity errors : sum local = 9.41706e-14, global = -3.0139e-14, cumulative = -1.60373e-11
==================== Some Information 
min/max(T) = 298.15, 300
min/max(rho) = 1.17117, 1.1795
min/max(p) = 101256, 101347
min/max(U) = (0 -0.326866 -0.0335733), (7.26488 0.261048 0.0335444)
====================================== 
ExecutionTime = 11.0587 s  ClockTime = 13 s

Courant Number mean: 0.0159884 max: 0.0166559
deltaT = 0.206857
Time = 0.643301s

diagonal:  Solving for rho, Initial residual = 0, Final residual = 0, No Iterations 0
DILUPBiCGStab:  Solving for Ux, Initial residual = 0.198341, Final residual = 1.64949e-07, No Iterations 1
DILUPBiCGStab:  Solving for Uy, Initial residual = 0.0188974, Final residual = 1.05976e-07, No Iterations 1
DILUPBiCGStab:  Solving for Uz, Initial residual = 0.317609, Final residual = 1.51679e-08, No Iterations 2
DILUPBiCGStab:  Solving for O2, Initial residual = 1.09799e-05, Final residual = 5.86052e-09, No Iterations 1
DILUPBiCGStab:  Solving for CO2, Initial residual = 0, Final residual = 0, No Iterations 0
DILUPBiCGStab:  Solving for h, Initial residual = 0.0623795, Final residual = 1.47522e-09, No Iterations 1
GAMG:  Solving for p_rgh, Initial residual = 0.219004, Final residual = 7.06677e-05, No Iterations 6
diagonal:  Solving for rho, Initial residual = 0, Final residual = 0, No Iterations 0
time step continuity errors : sum local = 2.06563e-09, global = -4.45044e-11, cumulative = -6.05417e-11
GAMG:  Solving for p_rgh, Initial residual = 0.000602345, Final residual = 8.16241e-09, No Iterations 8
diagonal:  Solving for rho, Initial residual = 0, Final residual = 0, No Iterations 0
time step continuity errors : sum local = 2.85853e-13, global = -8.80501e-14, cumulative = -6.06298e-11
==================== Some Information 
min/max(T) = 298.15, 300
min/max(rho) = 1.17096, 1.17949
min/max(p) = 101238, 101346
min/max(U) = (0 -0.306142 -0.0642061), (7.29134 0.2548 0.035226)
====================================== 
ExecutionTime = 14.4749 s  ClockTime = 16 s

Courant Number mean: 0.0191691 max: 0.0201293
deltaT = 0.248143
Time = 0.891444s

diagonal:  Solving for rho, Initial residual = 0, Final residual = 0, No Iterations 0
DILUPBiCGStab:  Solving for Ux, Initial residual = 0.166968, Final residual = 1.94413e-07, No Iterations 1
DILUPBiCGStab:  Solving for Uy, Initial residual = 0.0252535, Final residual = 1.88245e-07, No Iterations 1
DILUPBiCGStab:  Solving for Uz, Initial residual = 0.321398, Final residual = 2.55045e-08, No Iterations 2
DILUPBiCGStab:  Solving for O2, Initial residual = 1.13228e-05, Final residual = 7.24388e-09, No Iterations 1
DILUPBiCGStab:  Solving for CO2, Initial residual = 0, Final residual = 0, No Iterations 0
DILUPBiCGStab:  Solving for h, Initial residual = 0.0458662, Final residual = 1.79133e-09, No Iterations 1
GAMG:  Solving for p_rgh, Initial residual = 0.192702, Final residual = 0.000105573, No Iterations 6
diagonal:  Solving for rho, Initial residual = 0, Final residual = 0, No Iterations 0
time step continuity errors : sum local = 4.27863e-09, global = -7.32983e-10, cumulative = -7.93613e-10
GAMG:  Solving for p_rgh, Initial residual = 0.000596786, Final residual = 6.38431e-09, No Iterations 10
diagonal:  Solving for rho, Initial residual = 0, Final residual = 0, No Iterations 0
time step continuity errors : sum local = 3.10139e-13, global = -1.09533e-13, cumulative = -7.93723e-10
==================== Some Information 
min/max(T) = 298.15, 300
min/max(rho) = 1.17075, 1.17948
min/max(p) = 101220, 101345
min/max(U) = (0 -0.287793 -0.0968499), (7.31568 0.251488 0.0349757)
====================================== 
ExecutionTime = 17.898 s  ClockTime = 20 s

Courant Number mean: 0.0230011 max: 0.0243664
deltaT = 0.297771
Time = 1.18922s

diagonal:  Solving for rho, Initial residual = 0, Final residual = 0, No Iterations 0
DILUPBiCGStab:  Solving for Ux, Initial residual = 0.142041, Final residual = 2.1499e-07, No Iterations 1
DILUPBiCGStab:  Solving for Uy, Initial residual = 0.0307561, Final residual = 2.79037e-07, No Iterations 1
DILUPBiCGStab:  Solving for Uz, Initial residual = 0.26695, Final residual = 3.43454e-08, No Iterations 2
DILUPBiCGStab:  Solving for O2, Initial residual = 1.10311e-05, Final residual = 8.4263e-09, No Iterations 1
DILUPBiCGStab:  Solving for CO2, Initial residual = 0, Final residual = 0, No Iterations 0
DILUPBiCGStab:  Solving for h, Initial residual = 0.0372301, Final residual = 1.94967e-09, No Iterations 1
GAMG:  Solving for p_rgh, Initial residual = 0.184587, Final residual = 7.40172e-05, No Iterations 7
diagonal:  Solving for rho, Initial residual = 0, Final residual = 0, No Iterations 0
time step continuity errors : sum local = 4.08428e-09, global = 9.3429e-10, cumulative = 1.40567e-10
GAMG:  Solving for p_rgh, Initial residual = 0.000599842, Final residual = 5.84521e-09, No Iterations 11
diagonal:  Solving for rho, Initial residual = 0, Final residual = 0, No Iterations 0
time step continuity errors : sum local = 3.9058e-13, global = 1.3617e-13, cumulative = 1.40703e-10
==================== Some Information 
min/max(T) = 298.15, 300
min/max(rho) = 1.17055, 1.17946
min/max(p) = 101202, 101344
min/max(U) = (0 -0.275505 -0.129297), (7.3356 0.251721 0.0309608)
====================================== 
ExecutionTime = 21.4214 s  ClockTime = 23 s

Courant Number mean: 0.027612 max: 0.0295404
deltaT = 0.356789
Time = 1.546s

diagonal:  Solving for rho, Initial residual = 0, Final residual = 0, No Iterations 0
DILUPBiCGStab:  Solving for Ux, Initial residual = 0.121981, Final residual = 2.14022e-07, No Iterations 1
DILUPBiCGStab:  Solving for Uy, Initial residual = 0.0379623, Final residual = 4.52015e-07, No Iterations 1
DILUPBiCGStab:  Solving for Uz, Initial residual = 0.212918, Final residual = 4.32576e-08, No Iterations 2
DILUPBiCGStab:  Solving for O2, Initial residual = 1.14997e-05, Final residual = 1.00897e-08, No Iterations 1
DILUPBiCGStab:  Solving for CO2, Initial residual = 0, Final residual = 0, No Iterations 0
DILUPBiCGStab:  Solving for h, Initial residual = 0.0317893, Final residual = 2.2779e-09, No Iterations 1
GAMG:  Solving for p_rgh, Initial residual = 0.177232, Final residual = 7.9402e-05, No Iterations 7
diagonal:  Solving for rho, Initial residual = 0, Final residual = 0, No Iterations 0
time step continuity errors : sum local = 5.99145e-09, global = 1.77567e-09, cumulative = 1.91637e-09
GAMG:  Solving for p_rgh, Initial residual = 0.000632573, Final residual = 6.39595e-09, No Iterations 12
diagonal:  Solving for rho, Initial residual = 0, Final residual = 0, No Iterations 0
time step continuity errors : sum local = 5.89985e-13, global = -2.30736e-13, cumulative = 1.91614e-09
==================== Some Information 
min/max(T) = 298.15, 300
min/max(rho) = 1.17034, 1.17944
min/max(p) = 101184, 101342
min/max(U) = (0 -0.27208 -0.162938), (7.34239 0.253839 0.0348189)
====================================== 
ExecutionTime = 24.9735 s  ClockTime = 27 s

Courant Number mean: 0.0330972 max: 0.0356978
deltaT = 0.427632
Time = 1.97364s

diagonal:  Solving for rho, Initial residual = 0, Final residual = 0, No Iterations 0
DILUPBiCGStab:  Solving for Ux, Initial residual = 0.104655, Final residual = 1.7361e-07, No Iterations 1
DILUPBiCGStab:  Solving for Uy, Initial residual = 0.0508149, Final residual = 8.61098e-07, No Iterations 1
DILUPBiCGStab:  Solving for Uz, Initial residual = 0.179342, Final residual = 5.67746e-08, No Iterations 2
DILUPBiCGStab:  Solving for O2, Initial residual = 1.18577e-05, Final residual = 1.30605e-08, No Iterations 1
DILUPBiCGStab:  Solving for CO2, Initial residual = 0, Final residual = 0, No Iterations 0
DILUPBiCGStab:  Solving for h, Initial residual = 0.028018, Final residual = 2.94336e-09, No Iterations 1
GAMG:  Solving for p_rgh, Initial residual = 0.166907, Final residual = 8.65933e-05, No Iterations 7
diagonal:  Solving for rho, Initial residual = 0, Final residual = 0, No Iterations 0
time step continuity errors : sum local = 8.9619e-09, global = 2.49439e-09, cumulative = 4.41053e-09
GAMG:  Solving for p_rgh, Initial residual = 0.000626669, Final residual = 6.1193e-09, No Iterations 13
diagonal:  Solving for rho, Initial residual = 0, Final residual = 0, No Iterations 0
time step continuity errors : sum local = 7.74788e-13, global = 3.02281e-13, cumulative = 4.41083e-09
==================== Some Information 
min/max(T) = 298.15, 300
min/max(rho) = 1.17004, 1.17942
min/max(p) = 101158, 101340
min/max(U) = (0 -0.275795 -0.198933), (7.33469 0.255191 0.0374385)
====================================== 
ExecutionTime = 28.7764 s  ClockTime = 31 s

Courant Number mean: 0.0396825 max: 0.0431778
deltaT = 0.513158
Time = 2.48679s

diagonal:  Solving for rho, Initial residual = 0, Final residual = 0, No Iterations 0
DILUPBiCGStab:  Solving for Ux, Initial residual = 0.096179, Final residual = 1.07831e-07, No Iterations 1
DILUPBiCGStab:  Solving for Uy, Initial residual = 0.0812535, Final residual = 6.03297e-08, No Iterations 2
DILUPBiCGStab:  Solving for Uz, Initial residual = 0.161243, Final residual = 7.88744e-08, No Iterations 2
DILUPBiCGStab:  Solving for O2, Initial residual = 1.12889e-05, Final residual = 1.41391e-08, No Iterations 1
DILUPBiCGStab:  Solving for CO2, Initial residual = 0, Final residual = 0, No Iterations 0
DILUPBiCGStab:  Solving for h, Initial residual = 0.0252127, Final residual = 3.26343e-09, No Iterations 1
GAMG:  Solving for p_rgh, Initial residual = 0.15534, Final residual = 0.000119474, No Iterations 7
diagonal:  Solving for rho, Initial residual = 0, Final residual = 0, No Iterations 0
time step continuity errors : sum local = 1.68759e-08, global = 5.27814e-09, cumulative = 9.68897e-09
GAMG:  Solving for p_rgh, Initial residual = 0.000616638, Final residual = 5.37921e-09, No Iterations 15
diagonal:  Solving for rho, Initial residual = 0, Final residual = 0, No Iterations 0
time step continuity errors : sum local = 9.27667e-13, global = 3.65968e-13, cumulative = 9.68934e-09
==================== Some Information 
min/max(T) = 298.15, 300
min/max(rho) = 1.16973, 1.17941
min/max(p) = 101131, 101339
min/max(U) = (0 -0.281419 -0.239941), (7.31888 0.254579 0.038395)
====================================== 
ExecutionTime = 32.8965 s  ClockTime = 35 s

Courant Number mean: 0.0476329 max: 0.0525301
deltaT = 0.615252
Time = 3.10205s

diagonal:  Solving for rho, Initial residual = 0, Final residual = 0, No Iterations 0
DILUPBiCGStab:  Solving for Ux, Initial residual = 0.0986773, Final residual = 1.23632e-07, No Iterations 1
DILUPBiCGStab:  Solving for Uy, Initial residual = 0.12639, Final residual = 1.61251e-07, No Iterations 2
DILUPBiCGStab:  Solving for Uz, Initial residual = 0.150626, Final residual = 1.0794e-07, No Iterations 2
DILUPBiCGStab:  Solving for O2, Initial residual = 1.08853e-05, Final residual = 1.70978e-08, No Iterations 1
DILUPBiCGStab:  Solving for CO2, Initial residual = 0, Final residual = 0, No Iterations 0
DILUPBiCGStab:  Solving for h, Initial residual = 0.0229463, Final residual = 3.77064e-09, No Iterations 1
GAMG:  Solving for p_rgh, Initial residual = 0.14858, Final residual = 8.06985e-05, No Iterations 8
diagonal:  Solving for rho, Initial residual = 0, Final residual = 0, No Iterations 0
time step continuity errors : sum local = 1.53874e-08, global = -5.44711e-09, cumulative = 4.24223e-09
GAMG:  Solving for p_rgh, Initial residual = 0.000640251, Final residual = 6.01254e-09, No Iterations 15
diagonal:  Solving for rho, Initial residual = 0, Final residual = 0, No Iterations 0
time step continuity errors : sum local = 1.39273e-12, global = 5.79169e-13, cumulative = 4.24281e-09
==================== Some Information 
min/max(T) = 298.15, 300
min/max(rho) = 1.16945, 1.17939
min/max(p) = 101107, 101338
min/max(U) = (0 -0.283566 -0.299712), (7.30761 0.25264 0.0379504)
====================================== 
ExecutionTime = 37.2055 s  ClockTime = 39 s

Courant Number mean: 0.0571345 max: 0.0642138
deltaT = 0.735207
Time = 3.83725s

diagonal:  Solving for rho, Initial residual = 0, Final residual = 0, No Iterations 0
DILUPBiCGStab:  Solving for Ux, Initial residual = 0.0980366, Final residual = 1.60411e-07, No Iterations 1
DILUPBiCGStab:  Solving for Uy, Initial residual = 0.153652, Final residual = 3.24356e-07, No Iterations 2
DILUPBiCGStab:  Solving for Uz, Initial residual = 0.143191, Final residual = 1.3865e-07, No Iterations 2
DILUPBiCGStab:  Solving for O2, Initial residual = 1.13386e-05, Final residual = 2.07605e-08, No Iterations 1
DILUPBiCGStab:  Solving for CO2, Initial residual = 0, Final residual = 0, No Iterations 0
DILUPBiCGStab:  Solving for h, Initial residual = 0.0209725, Final residual = 6.38858e-09, No Iterations 1
GAMG:  Solving for p_rgh, Initial residual = 0.14815, Final residual = 0.000139028, No Iterations 8
diagonal:  Solving for rho, Initial residual = 0, Final residual = 0, No Iterations 0
time step continuity errors : sum local = 3.53436e-08, global = -1.12728e-08, cumulative = -7.02999e-09
GAMG:  Solving for p_rgh, Initial residual = 0.000718129, Final residual = 6.91666e-09, No Iterations 16
diagonal:  Solving for rho, Initial residual = 0, Final residual = 0, No Iterations 0
time step continuity errors : sum local = 2.1529e-12, global = -7.45653e-13, cumulative = -7.03073e-09
==================== Some Information 
min/max(T) = 298.15, 300
min/max(rho) = 1.16921, 1.17937
min/max(p) = 101086, 101336
min/max(U) = (0 -0.280518 -0.372311), (7.30386 0.250518 0.0363295)
====================================== 
ExecutionTime = 41.383 s  ClockTime = 44 s

Courant Number mean: 0.0683068 max: 0.0784239
deltaT = 0.880021
Time = 4.71727s

diagonal:  Solving for rho, Initial residual = 0, Final residual = 0, No Iterations 0
DILUPBiCGStab:  Solving for Ux, Initial residual = 0.0948606, Final residual = 2.09615e-07, No Iterations 1
DILUPBiCGStab:  Solving for Uy, Initial residual = 0.161153, Final residual = 5.81973e-07, No Iterations 2
DILUPBiCGStab:  Solving for Uz, Initial residual = 0.13788, Final residual = 1.71989e-07, No Iterations 2
DILUPBiCGStab:  Solving for O2, Initial residual = 1.19932e-05, Final residual = 2.62056e-08, No Iterations 1
DILUPBiCGStab:  Solving for CO2, Initial residual = 0, Final residual = 0, No Iterations 0
DILUPBiCGStab:  Solving for h, Initial residual = 0.0192863, Final residual = 8.36932e-09, No Iterations 1
GAMG:  Solving for p_rgh, Initial residual = 0.145434, Final residual = 0.000136806, No Iterations 9
diagonal:  Solving for rho, Initial residual = 0, Final residual = 0, No Iterations 0
time step continuity errors : sum local = 4.68686e-08, global = 1.6109e-08, cumulative = 9.0783e-09
GAMG:  Solving for p_rgh, Initial residual = 0.000735129, Final residual = 8.74793e-09, No Iterations 17
diagonal:  Solving for rho, Initial residual = 0, Final residual = 0, No Iterations 0
time step continuity errors : sum local = 3.7312e-12, global = 1.16422e-12, cumulative = 9.07946e-09
==================== Some Information 
min/max(T) = 298.15, 300
min/max(rho) = 1.16904, 1.17934
min/max(p) = 101072, 101333
min/max(U) = (0 -0.274726 -0.453302), (7.30477 0.248746 0.0337806)
====================================== 
ExecutionTime = 45.4053 s  ClockTime = 48 s

Courant Number mean: 0.0817915 max: 0.0960918
deltaT = 1.04802
Time = 5.7653s

diagonal:  Solving for rho, Initial residual = 0, Final residual = 0, No Iterations 0
DILUPBiCGStab:  Solving for Ux, Initial residual = 0.0937806, Final residual = 8.35001e-07, No Iterations 1
DILUPBiCGStab:  Solving for Uy, Initial residual = 0.149495, Final residual = 9.15871e-07, No Iterations 2
DILUPBiCGStab:  Solving for Uz, Initial residual = 0.129916, Final residual = 1.93786e-07, No Iterations 2
DILUPBiCGStab:  Solving for O2, Initial residual = 1.26223e-05, Final residual = 3.49948e-08, No Iterations 1
DILUPBiCGStab:  Solving for CO2, Initial residual = 0, Final residual = 0, No Iterations 0
DILUPBiCGStab:  Solving for h, Initial residual = 0.0176683, Final residual = 1.3418e-08, No Iterations 1
GAMG:  Solving for p_rgh, Initial residual = 0.139179, Final residual = 9.02251e-05, No Iterations 11
diagonal:  Solving for rho, Initial residual = 0, Final residual = 0, No Iterations 0
time step continuity errors : sum local = 4.22133e-08, global = 1.47981e-08, cumulative = 2.38776e-08
GAMG:  Solving for p_rgh, Initial residual = 0.000758096, Final residual = 7.21532e-09, No Iterations 19
diagonal:  Solving for rho, Initial residual = 0, Final residual = 0, No Iterations 0
time step continuity errors : sum local = 4.12453e-12, global = 1.24924e-12, cumulative = 2.38788e-08
==================== Some Information 
min/max(T) = 298.15, 300
min/max(rho) = 1.16896, 1.17931
min/max(p) = 101065, 101331
min/max(U) = (0 -0.270047 -0.537515), (7.3063 0.247171 0.0311891)
====================================== 
ExecutionTime = 49.5238 s  ClockTime = 52 s

Courant Number mean: 0.0974045 max: 0.117134
deltaT = 1.25533
Time = 7.02063s

diagonal:  Solving for rho, Initial residual = 0, Final residual = 0, No Iterations 0
DILUPBiCGStab:  Solving for Ux, Initial residual = 0.0964315, Final residual = 2.0568e-07, No Iterations 2
DILUPBiCGStab:  Solving for Uy, Initial residual = 0.122867, Final residual = 5.30825e-08, No Iterations 2
DILUPBiCGStab:  Solving for Uz, Initial residual = 0.11675, Final residual = 2.05285e-07, No Iterations 2
DILUPBiCGStab:  Solving for O2, Initial residual = 1.2632e-05, Final residual = 3.98715e-08, No Iterations 1
DILUPBiCGStab:  Solving for CO2, Initial residual = 0, Final residual = 0, No Iterations 0
DILUPBiCGStab:  Solving for h, Initial residual = 0.0162782, Final residual = 2.1175e-08, No Iterations 1
GAMG:  Solving for p_rgh, Initial residual = 0.135136, Final residual = 0.000114842, No Iterations 12
diagonal:  Solving for rho, Initial residual = 0, Final residual = 0, No Iterations 0
time step continuity errors : sum local = 7.18204e-08, global = -2.47866e-08, cumulative = -9.07765e-10
GAMG:  Solving for p_rgh, Initial residual = 0.000884371, Final residual = 9.32462e-09, No Iterations 21
diagonal:  Solving for rho, Initial residual = 0, Final residual = 0, No Iterations 0
time step continuity errors : sum local = 6.97609e-12, global = 2.18363e-12, cumulative = -9.05581e-10
==================== Some Information 
min/max(T) = 298.15, 300
min/max(rho) = 1.16895, 1.1793
min/max(p) = 101064, 101330
min/max(U) = (0 -0.26856 -0.616798), (7.30717 0.245693 0.0290005)
====================================== 
ExecutionTime = 53.7742 s  ClockTime = 56 s

Courant Number mean: 0.116568 max: 0.143363
deltaT = 1.50639
Time = 8.52702s

diagonal:  Solving for rho, Initial residual = 0, Final residual = 0, No Iterations 0
DILUPBiCGStab:  Solving for Ux, Initial residual = 0.100329, Final residual = 7.98211e-07, No Iterations 2
DILUPBiCGStab:  Solving for Uy, Initial residual = 0.0841669, Final residual = 7.28013e-08, No Iterations 2
DILUPBiCGStab:  Solving for Uz, Initial residual = 0.102815, Final residual = 4.35354e-07, No Iterations 2
DILUPBiCGStab:  Solving for O2, Initial residual = 1.32432e-05, Final residual = 5.09994e-08, No Iterations 1
DILUPBiCGStab:  Solving for CO2, Initial residual = 0, Final residual = 0, No Iterations 0
DILUPBiCGStab:  Solving for h, Initial residual = 0.0149848, Final residual = 2.54092e-08, No Iterations 1
GAMG:  Solving for p_rgh, Initial residual = 0.131436, Final residual = 9.95528e-05, No Iterations 14
diagonal:  Solving for rho, Initial residual = 0, Final residual = 0, No Iterations 0
time step continuity errors : sum local = 8.12652e-08, global = -2.69943e-08, cumulative = -2.78999e-08
GAMG:  Solving for p_rgh, Initial residual = 0.000998762, Final residual = 9.11964e-09, No Iterations 24
diagonal:  Solving for rho, Initial residual = 0, Final residual = 0, No Iterations 0
time step continuity errors : sum local = 8.74127e-12, global = -2.9513e-12, cumulative = -2.79028e-08
==================== Some Information 
min/max(T) = 298.15, 300
min/max(rho) = 1.16895, 1.17929
min/max(p) = 101064, 101329
min/max(U) = (0 -0.270481 -0.68022), (7.30721 0.245571 0.0272968)
====================================== 
ExecutionTime = 58.2285 s  ClockTime = 61 s

Courant Number mean: 0.139553 max: 0.175059
deltaT = 1.79795
Time = 10.325s

diagonal:  Solving for rho, Initial residual = 0, Final residual = 0, No Iterations 0
DILUPBiCGStab:  Solving for Ux, Initial residual = 0.105296, Final residual = 1.36628e-07, No Iterations 2
DILUPBiCGStab:  Solving for Uy, Initial residual = 0.0609132, Final residual = 1.03211e-07, No Iterations 2
DILUPBiCGStab:  Solving for Uz, Initial residual = 0.0821186, Final residual = 6.30334e-08, No Iterations 2
DILUPBiCGStab:  Solving for O2, Initial residual = 1.29703e-05, Final residual = 5.45987e-08, No Iterations 1
DILUPBiCGStab:  Solving for CO2, Initial residual = 0, Final residual = 0, No Iterations 0
DILUPBiCGStab:  Solving for h, Initial residual = 0.0136756, Final residual = 4.39179e-08, No Iterations 1
GAMG:  Solving for p_rgh, Initial residual = 0.130501, Final residual = 0.000122894, No Iterations 15
diagonal:  Solving for rho, Initial residual = 0, Final residual = 0, No Iterations 0
time step continuity errors : sum local = 1.27954e-07, global = 4.22984e-08, cumulative = 1.43955e-08
GAMG:  Solving for p_rgh, Initial residual = 0.00118131, Final residual = 7.00708e-09, No Iterations 28
diagonal:  Solving for rho, Initial residual = 0, Final residual = 0, No Iterations 0
time step continuity errors : sum local = 8.41725e-12, global = -2.57222e-12, cumulative = 1.4393e-08
==================== Some Information 
min/max(T) = 298.15, 300
min/max(rho) = 1.16892, 1.17928
min/max(p) = 101061, 101329
min/max(U) = (0 -0.273645 -0.721021), (7.3074 0.246034 0.026308)
====================================== 
ExecutionTime = 62.9945 s  ClockTime = 65 s

Courant Number mean: 0.165841 max: 0.211296
deltaT = 2.15049
Time = 12.4755s

diagonal:  Solving for rho, Initial residual = 0, Final residual = 0, No Iterations 0
DILUPBiCGStab:  Solving for Ux, Initial residual = 0.112346, Final residual = 3.55353e-07, No Iterations 2
DILUPBiCGStab:  Solving for Uy, Initial residual = 0.0671214, Final residual = 2.20253e-07, No Iterations 2
DILUPBiCGStab:  Solving for Uz, Initial residual = 0.0482303, Final residual = 9.49294e-08, No Iterations 2
DILUPBiCGStab:  Solving for O2, Initial residual = 1.33135e-05, Final residual = 6.13552e-08, No Iterations 1
DILUPBiCGStab:  Solving for CO2, Initial residual = 0, Final residual = 0, No Iterations 0
DILUPBiCGStab:  Solving for h, Initial residual = 0.0124823, Final residual = 6.18404e-08, No Iterations 1
GAMG:  Solving for p_rgh, Initial residual = 0.130285, Final residual = 0.000108073, No Iterations 17
diagonal:  Solving for rho, Initial residual = 0, Final residual = 0, No Iterations 0
time step continuity errors : sum local = 1.4025e-07, global = 4.01919e-08, cumulative = 5.45849e-08
GAMG:  Solving for p_rgh, Initial residual = 0.00136161, Final residual = 9.68787e-09, No Iterations 31
diagonal:  Solving for rho, Initial residual = 0, Final residual = 0, No Iterations 0
time step continuity errors : sum local = 1.42252e-11, global = 3.81837e-12, cumulative = 5.45887e-08
==================== Some Information 
min/max(T) = 298.15, 300
min/max(rho) = 1.16882, 1.17928
min/max(p) = 101053, 101328
min/max(U) = (0 -0.27651 -0.741831), (7.30961 0.246181 0.0263398)
====================================== 
ExecutionTime = 67.925 s  ClockTime = 70 s

Courant Number mean: 0.19707 max: 0.253896
deltaT = 2.56011
Time = 15.0356s

diagonal:  Solving for rho, Initial residual = 0, Final residual = 0, No Iterations 0
DILUPBiCGStab:  Solving for Ux, Initial residual = 0.121446, Final residual = 7.85569e-07, No Iterations 2
DILUPBiCGStab:  Solving for Uy, Initial residual = 0.153197, Final residual = 9.61789e-07, No Iterations 2
DILUPBiCGStab:  Solving for Uz, Initial residual = 0.018503, Final residual = 4.49306e-07, No Iterations 2
DILUPBiCGStab:  Solving for O2, Initial residual = 1.30941e-05, Final residual = 7.484e-08, No Iterations 1
DILUPBiCGStab:  Solving for CO2, Initial residual = 0, Final residual = 0, No Iterations 0
DILUPBiCGStab:  Solving for h, Initial residual = 0.0113201, Final residual = 7.03328e-08, No Iterations 1
GAMG:  Solving for p_rgh, Initial residual = 0.1324, Final residual = 0.00013113, No Iterations 18
diagonal:  Solving for rho, Initial residual = 0, Final residual = 0, No Iterations 0
time step continuity errors : sum local = 2.0605e-07, global = -5.02108e-08, cumulative = 4.37789e-09
GAMG:  Solving for p_rgh, Initial residual = 0.00162428, Final residual = 8.82102e-09, No Iterations 35
diagonal:  Solving for rho, Initial residual = 0, Final residual = 0, No Iterations 0
time step continuity errors : sum local = 1.52613e-11, global = 3.78525e-12, cumulative = 4.38168e-09
==================== Some Information 
min/max(T) = 298.15, 300
min/max(rho) = 1.16867, 1.17928
min/max(p) = 101040, 101328
min/max(U) = (0 -0.278247 -0.764458), (7.31134 0.246209 0.026985)
====================================== 
ExecutionTime = 73.1467 s  ClockTime = 76 s

Courant Number mean: 0.232651 max: 0.301741
deltaT = 2.99898
Time = 18.0346s

diagonal:  Solving for rho, Initial residual = 0, Final residual = 0, No Iterations 0
DILUPBiCGStab:  Solving for Ux, Initial residual = 0.132661, Final residual = 8.75974e-09, No Iterations 3
DILUPBiCGStab:  Solving for Uy, Initial residual = 0.17408, Final residual = 1.05211e-08, No Iterations 3
DILUPBiCGStab:  Solving for Uz, Initial residual = 0.0269437, Final residual = 1.55315e-07, No Iterations 2
DILUPBiCGStab:  Solving for O2, Initial residual = 1.37504e-05, Final residual = 8.72018e-08, No Iterations 1
DILUPBiCGStab:  Solving for CO2, Initial residual = 0, Final residual = 0, No Iterations 0
DILUPBiCGStab:  Solving for h, Initial residual = 0.0101164, Final residual = 1.32363e-07, No Iterations 1
GAMG:  Solving for p_rgh, Initial residual = 0.14045, Final residual = 0.000117554, No Iterations 20
diagonal:  Solving for rho, Initial residual = 0, Final residual = 0, No Iterations 0
time step continuity errors : sum local = 2.1429e-07, global = -4.50835e-08, cumulative = -4.07018e-08
GAMG:  Solving for p_rgh, Initial residual = 0.00212955, Final residual = 9.74342e-09, No Iterations 38
diagonal:  Solving for rho, Initial residual = 0, Final residual = 0, No Iterations 0
time step continuity errors : sum local = 1.88201e-11, global = -4.42713e-12, cumulative = -4.07062e-08
==================== Some Information 
min/max(T) = 298.15, 300
min/max(rho) = 1.16853, 1.17923
min/max(p) = 101028, 101324
min/max(U) = (0 -0.278154 -0.804873), (7.31164 0.245375 0.0275532)
====================================== 
ExecutionTime = 78.8178 s  ClockTime = 81 s

Courant Number mean: 0.26987 max: 0.350242
deltaT = 3.39885
Time = 21.4334s

diagonal:  Solving for rho, Initial residual = 0, Final residual = 0, No Iterations 0
DILUPBiCGStab:  Solving for Ux, Initial residual = 0.145187, Final residual = 2.04782e-08, No Iterations 3
DILUPBiCGStab:  Solving for Uy, Initial residual = 0.0766414, Final residual = 9.30053e-09, No Iterations 3
DILUPBiCGStab:  Solving for Uz, Initial residual = 0.0276049, Final residual = 1.68583e-07, No Iterations 2
DILUPBiCGStab:  Solving for O2, Initial residual = 1.41426e-05, Final residual = 1.00412e-07, No Iterations 1
DILUPBiCGStab:  Solving for CO2, Initial residual = 0, Final residual = 0, No Iterations 0
DILUPBiCGStab:  Solving for h, Initial residual = 0.00891407, Final residual = 1.40536e-07, No Iterations 1
GAMG:  Solving for p_rgh, Initial residual = 0.150385, Final residual = 0.000126967, No Iterations 21
diagonal:  Solving for rho, Initial residual = 0, Final residual = 0, No Iterations 0
time step continuity errors : sum local = 2.52344e-07, global = 5.23623e-08, cumulative = 1.16561e-08
GAMG:  Solving for p_rgh, Initial residual = 0.00233544, Final residual = 8.64284e-09, No Iterations 41
diagonal:  Solving for rho, Initial residual = 0, Final residual = 0, No Iterations 0
time step continuity errors : sum local = 1.73253e-11, global = 3.94523e-12, cumulative = 1.166e-08
==================== Some Information 
min/max(T) = 298.15, 300
min/max(rho) = 1.16844, 1.17913
min/max(p) = 101020, 101315
min/max(U) = (0 -0.27593 -0.831697), (7.30859 0.243347 0.0275895)
====================================== 
ExecutionTime = 84.7919 s  ClockTime = 87 s

Courant Number mean: 0.302497 max: 0.39888
deltaT = 3.79102
Time = 25.2244s

diagonal:  Solving for rho, Initial residual = 0, Final residual = 0, No Iterations 0
DILUPBiCGStab:  Solving for Ux, Initial residual = 0.160462, Final residual = 3.10353e-08, No Iterations 3
DILUPBiCGStab:  Solving for Uy, Initial residual = 0.047626, Final residual = 1.02688e-08, No Iterations 3
DILUPBiCGStab:  Solving for Uz, Initial residual = 0.0290687, Final residual = 6.33164e-07, No Iterations 2
DILUPBiCGStab:  Solving for O2, Initial residual = 1.45791e-05, Final residual = 1.11836e-07, No Iterations 1
DILUPBiCGStab:  Solving for CO2, Initial residual = 0, Final residual = 0, No Iterations 0
DILUPBiCGStab:  Solving for h, Initial residual = 0.00885106, Final residual = 1.23156e-07, No Iterations 1
GAMG:  Solving for p_rgh, Initial residual = 0.169831, Final residual = 0.000131199, No Iterations 22
diagonal:  Solving for rho, Initial residual = 0, Final residual = 0, No Iterations 0
time step continuity errors : sum local = 2.63306e-07, global = -5.21324e-08, cumulative = -4.04724e-08
GAMG:  Solving for p_rgh, Initial residual = 0.0023971, Final residual = 9.50766e-09, No Iterations 42
diagonal:  Solving for rho, Initial residual = 0, Final residual = 0, No Iterations 0
time step continuity errors : sum local = 1.80532e-11, global = 4.15636e-12, cumulative = -4.04682e-08
==================== Some Information 
min/max(T) = 298.15, 300
min/max(rho) = 1.1684, 1.17885
min/max(p) = 101016, 101291
min/max(U) = (0 -0.273696 -0.834348), (7.29972 0.241491 0.0274126)
====================================== 
ExecutionTime = 90.7137 s  ClockTime = 93 s

Courant Number mean: 0.333429 max: 0.446448
deltaT = 4.12068
Time = 29.3451s

diagonal:  Solving for rho, Initial residual = 0, Final residual = 0, No Iterations 0
DILUPBiCGStab:  Solving for Ux, Initial residual = 0.170798, Final residual = 4.75486e-08, No Iterations 3
DILUPBiCGStab:  Solving for Uy, Initial residual = 0.0595593, Final residual = 1.85711e-08, No Iterations 3
DILUPBiCGStab:  Solving for Uz, Initial residual = 0.028662, Final residual = 2.39362e-07, No Iterations 2
DILUPBiCGStab:  Solving for O2, Initial residual = 1.48876e-05, Final residual = 1.23276e-07, No Iterations 1
DILUPBiCGStab:  Solving for CO2, Initial residual = 0, Final residual = 0, No Iterations 0
DILUPBiCGStab:  Solving for h, Initial residual = 0.00858098, Final residual = 2.05743e-07, No Iterations 1
GAMG:  Solving for p_rgh, Initial residual = 0.203816, Final residual = 0.000179244, No Iterations 22
diagonal:  Solving for rho, Initial residual = 0, Final residual = 0, No Iterations 0
time step continuity errors : sum local = 3.27748e-07, global = -5.56559e-08, cumulative = -9.61241e-08
GAMG:  Solving for p_rgh, Initial residual = 0.00261197, Final residual = 8.13196e-09, No Iterations 48
diagonal:  Solving for rho, Initial residual = 0, Final residual = 0, No Iterations 0
time step continuity errors : sum local = 1.28363e-11, global = 2.57994e-12, cumulative = -9.61215e-08
==================== Some Information 
min/max(T) = 298.15, 300
min/max(rho) = 1.16839, 1.17827
min/max(p) = 101016, 101242
min/max(U) = (0 -0.272676 -0.832011), (7.28464 0.240238 0.0273847)
====================================== 
ExecutionTime = 97.0154 s  ClockTime = 100 s

Courant Number mean: 0.358414 max: 0.48186
deltaT = 4.53274
Time = 33.8778s

diagonal:  Solving for rho, Initial residual = 0, Final residual = 0, No Iterations 0
DILUPBiCGStab:  Solving for Ux, Initial residual = 0.16885, Final residual = 6.96126e-08, No Iterations 3
DILUPBiCGStab:  Solving for Uy, Initial residual = 0.037128, Final residual = 1.8536e-08, No Iterations 3
DILUPBiCGStab:  Solving for Uz, Initial residual = 0.0256298, Final residual = 2.84004e-07, No Iterations 2
DILUPBiCGStab:  Solving for O2, Initial residual = 1.49823e-05, Final residual = 1.30896e-07, No Iterations 1
DILUPBiCGStab:  Solving for CO2, Initial residual = 0, Final residual = 0, No Iterations 0
DILUPBiCGStab:  Solving for h, Initial residual = 0.0082874, Final residual = 3.16966e-07, No Iterations 1
GAMG:  Solving for p_rgh, Initial residual = 0.279443, Final residual = 0.000244032, No Iterations 22
diagonal:  Solving for rho, Initial residual = 0, Final residual = 0, No Iterations 0
time step continuity errors : sum local = 3.55414e-07, global = -5.16608e-08, cumulative = -1.47782e-07
GAMG:  Solving for p_rgh, Initial residual = 0.00468215, Final residual = 8.28761e-09, No Iterations 50
diagonal:  Solving for rho, Initial residual = 0, Final residual = 0, No Iterations 0
time step continuity errors : sum local = 8.7356e-12, global = 1.78279e-12, cumulative = -1.47781e-07
==================== Some Information 
min/max(T) = 298.15, 300
min/max(rho) = 1.16839, 1.17737
min/max(p) = 101016, 101164
min/max(U) = (0 -0.269493 -0.831145), (7.27841 0.235964 0.0273557)
====================================== 
ExecutionTime = 103.209 s  ClockTime = 106 s

Courant Number mean: 0.39095 max: 0.519937
deltaT = 4.78456
Time = 38.6624s

diagonal:  Solving for rho, Initial residual = 0, Final residual = 0, No Iterations 0
DILUPBiCGStab:  Solving for Ux, Initial residual = 0.129714, Final residual = 5.84076e-08, No Iterations 3
DILUPBiCGStab:  Solving for Uy, Initial residual = 0.024332, Final residual = 1.67822e-08, No Iterations 3
DILUPBiCGStab:  Solving for Uz, Initial residual = 0.0237157, Final residual = 3.18198e-07, No Iterations 2
DILUPBiCGStab:  Solving for O2, Initial residual = 1.4724e-05, Final residual = 1.34886e-07, No Iterations 1
DILUPBiCGStab:  Solving for CO2, Initial residual = 0, Final residual = 0, No Iterations 0
DILUPBiCGStab:  Solving for h, Initial residual = 0.00762852, Final residual = 2.98626e-07, No Iterations 1
GAMG:  Solving for p_rgh, Initial residual = 0.437765, Final residual = 0.000384355, No Iterations 24
diagonal:  Solving for rho, Initial residual = 0, Final residual = 0, No Iterations 0
time step continuity errors : sum local = 3.70139e-07, global = -5.44125e-08, cumulative = -2.02193e-07
GAMG:  Solving for p_rgh, Initial residual = 0.0146326, Final residual = 1.39594e-08, No Iterations 54
diagonal:  Solving for rho, Initial residual = 0, Final residual = 0, No Iterations 0
time step continuity errors : sum local = 5.70274e-12, global = 1.00272e-12, cumulative = -2.02192e-07
==================== Some Information 
min/max(T) = 298.15, 300
min/max(rho) = 1.16837, 1.17629
min/max(p) = 101014, 101071
min/max(U) = (0 -0.268669 -0.809582), (7.27004 0.234562 0.0274478)
====================================== 
ExecutionTime = 109.634 s  ClockTime = 112 s

Courant Number mean: 0.4112 max: 0.545301
deltaT = 5.0836
Time = 43.746s

diagonal:  Solving for rho, Initial residual = 0, Final residual = 0, No Iterations 0
DILUPBiCGStab:  Solving for Ux, Initial residual = 0.0601666, Final residual = 3.13454e-08, No Iterations 3
DILUPBiCGStab:  Solving for Uy, Initial residual = 0.0285701, Final residual = 2.37003e-08, No Iterations 3
DILUPBiCGStab:  Solving for Uz, Initial residual = 0.0241521, Final residual = 4.14391e-07, No Iterations 2
DILUPBiCGStab:  Solving for O2, Initial residual = 1.48978e-05, Final residual = 1.45597e-07, No Iterations 1
DILUPBiCGStab:  Solving for CO2, Initial residual = 0, Final residual = 0, No Iterations 0
DILUPBiCGStab:  Solving for h, Initial residual = 0.00709895, Final residual = 3.7506e-07, No Iterations 1
GAMG:  Solving for p_rgh, Initial residual = 0.666464, Final residual = 0.000657335, No Iterations 24
diagonal:  Solving for rho, Initial residual = 0, Final residual = 0, No Iterations 0
time step continuity errors : sum local = 4.31741e-07, global = -6.5617e-08, cumulative = -2.67809e-07
GAMG:  Solving for p_rgh, Initial residual = 0.020308, Final residual = 1.56055e-08, No Iterations 57
diagonal:  Solving for rho, Initial residual = 0, Final residual = 0, No Iterations 0
time step continuity errors : sum local = 4.91221e-12, global = -9.09795e-13, cumulative = -2.6781e-07
==================== Some Information 
min/max(T) = 298.15, 300
min/max(rho) = 1.16793, 1.1756
min/max(p) = 100975, 101012
min/max(U) = (0 -0.267461 -0.79976), (7.26091 0.232821 0.0305429)
====================================== 
ExecutionTime = 116.167 s  ClockTime = 119 s

Courant Number mean: 0.437709 max: 0.572723
deltaT = 5.0836
Time = 48.8296s

diagonal:  Solving for rho, Initial residual = 0, Final residual = 0, No Iterations 0
DILUPBiCGStab:  Solving for Ux, Initial residual = 0.0327981, Final residual = 1.86577e-08, No Iterations 3
DILUPBiCGStab:  Solving for Uy, Initial residual = 0.0268263, Final residual = 2.23017e-08, No Iterations 3
DILUPBiCGStab:  Solving for Uz, Initial residual = 0.0239157, Final residual = 4.33092e-07, No Iterations 2
DILUPBiCGStab:  Solving for O2, Initial residual = 1.47995e-05, Final residual = 1.47735e-07, No Iterations 1
DILUPBiCGStab:  Solving for CO2, Initial residual = 0, Final residual = 0, No Iterations 0
DILUPBiCGStab:  Solving for h, Initial residual = 0.00627637, Final residual = 4.92997e-07, No Iterations 1
GAMG:  Solving for p_rgh, Initial residual = 0.678612, Final residual = 0.000595051, No Iterations 22
diagonal:  Solving for rho, Initial residual = 0, Final residual = 0, No Iterations 0
time step continuity errors : sum local = 3.75319e-07, global = -5.51841e-08, cumulative = -3.22994e-07
GAMG:  Solving for p_rgh, Initial residual = 0.005882, Final residual = 9.60954e-09, No Iterations 52
diagonal:  Solving for rho, Initial residual = 0, Final residual = 0, No Iterations 0
time step continuity errors : sum local = 7.51181e-12, global = 1.29543e-12, cumulative = -3.22993e-07
==================== Some Information 
min/max(T) = 298.15, 300
min/max(rho) = 1.167, 1.17543
min/max(p) = 100896, 100998
min/max(U) = (0 -0.263894 -0.78229), (7.25234 0.2285 0.0338332)
====================================== 
ExecutionTime = 122.653 s  ClockTime = 126 s

Courant Number mean: 0.440357 max: 0.564372
deltaT = 5.0836
Time = 53.9132s

diagonal:  Solving for rho, Initial residual = 0, Final residual = 0, No Iterations 0
DILUPBiCGStab:  Solving for Ux, Initial residual = 0.0905763, Final residual = 5.07658e-08, No Iterations 3
DILUPBiCGStab:  Solving for Uy, Initial residual = 0.0274578, Final residual = 2.27749e-08, No Iterations 3
DILUPBiCGStab:  Solving for Uz, Initial residual = 0.0239179, Final residual = 4.62676e-07, No Iterations 2
DILUPBiCGStab:  Solving for O2, Initial residual = 1.46086e-05, Final residual = 1.45921e-07, No Iterations 1
DILUPBiCGStab:  Solving for CO2, Initial residual = 0, Final residual = 0, No Iterations 0
DILUPBiCGStab:  Solving for h, Initial residual = 0.00564244, Final residual = 3.12056e-07, No Iterations 1
GAMG:  Solving for p_rgh, Initial residual = 0.437631, Final residual = 0.000343521, No Iterations 18
diagonal:  Solving for rho, Initial residual = 0, Final residual = 0, No Iterations 0
time step continuity errors : sum local = 3.30858e-07, global = -4.58708e-08, cumulative = -3.68864e-07
GAMG:  Solving for p_rgh, Initial residual = 0.00290147, Final residual = 8.68636e-09, No Iterations 49
diagonal:  Solving for rho, Initial residual = 0, Final residual = 0, No Iterations 0
time step continuity errors : sum local = 9.01304e-12, global = -1.76414e-12, cumulative = -3.68865e-07
==================== Some Information 
min/max(T) = 298.15, 300
min/max(rho) = 1.16631, 1.17515
min/max(p) = 100835, 100973
min/max(U) = (0 -0.263542 -0.767322), (7.24429 0.22808 0.0329558)
====================================== 
ExecutionTime = 129.171 s  ClockTime = 132 s

Courant Number mean: 0.444012 max: 0.560956
deltaT = 5.0836
Time = 58.9968s

diagonal:  Solving for rho, Initial residual = 0, Final residual = 0, No Iterations 0
DILUPBiCGStab:  Solving for Ux, Initial residual = 0.119374, Final residual = 6.73436e-08, No Iterations 3
DILUPBiCGStab:  Solving for Uy, Initial residual = 0.0275959, Final residual = 2.29268e-08, No Iterations 3
DILUPBiCGStab:  Solving for Uz, Initial residual = 0.0239433, Final residual = 4.84923e-07, No Iterations 2
DILUPBiCGStab:  Solving for O2, Initial residual = 1.44771e-05, Final residual = 1.47363e-07, No Iterations 1
DILUPBiCGStab:  Solving for CO2, Initial residual = 0, Final residual = 0, No Iterations 0
DILUPBiCGStab:  Solving for h, Initial residual = 0.00514333, Final residual = 2.07558e-07, No Iterations 1
GAMG:  Solving for p_rgh, Initial residual = 0.374141, Final residual = 0.000345925, No Iterations 15
diagonal:  Solving for rho, Initial residual = 0, Final residual = 0, No Iterations 0
time step continuity errors : sum local = 3.86283e-07, global = 7.72565e-08, cumulative = -2.91609e-07
GAMG:  Solving for p_rgh, Initial residual = 0.00178015, Final residual = 9.37484e-09, No Iterations 48
diagonal:  Solving for rho, Initial residual = 0, Final residual = 0, No Iterations 0
time step continuity errors : sum local = 1.00733e-11, global = 1.78215e-12, cumulative = -2.91607e-07
==================== Some Information 
min/max(T) = 298.15, 300
min/max(rho) = 1.16581, 1.17471
min/max(p) = 100792, 100936
min/max(U) = (0 -0.260616 -0.75496), (7.23635 0.224478 0.0294016)
====================================== 
ExecutionTime = 135.095 s  ClockTime = 138 s

Courant Number mean: 0.447838 max: 0.553932
deltaT = 5.0836
Time = 64.0804s

diagonal:  Solving for rho, Initial residual = 0, Final residual = 0, No Iterations 0
DILUPBiCGStab:  Solving for Ux, Initial residual = 0.121998, Final residual = 6.8478e-08, No Iterations 3
DILUPBiCGStab:  Solving for Uy, Initial residual = 0.0266561, Final residual = 2.20658e-08, No Iterations 3
DILUPBiCGStab:  Solving for Uz, Initial residual = 0.0238761, Final residual = 4.82304e-07, No Iterations 2
DILUPBiCGStab:  Solving for O2, Initial residual = 1.4398e-05, Final residual = 1.46372e-07, No Iterations 1
DILUPBiCGStab:  Solving for CO2, Initial residual = 0, Final residual = 0, No Iterations 0
DILUPBiCGStab:  Solving for h, Initial residual = 0.00475043, Final residual = 3.20467e-07, No Iterations 1
GAMG:  Solving for p_rgh, Initial residual = 0.383764, Final residual = 0.000361856, No Iterations 17
diagonal:  Solving for rho, Initial residual = 0, Final residual = 0, No Iterations 0
time step continuity errors : sum local = 3.9238e-07, global = 6.61932e-08, cumulative = -2.25414e-07
GAMG:  Solving for p_rgh, Initial residual = 0.00251508, Final residual = 8.18433e-09, No Iterations 49
diagonal:  Solving for rho, Initial residual = 0, Final residual = 0, No Iterations 0
time step continuity errors : sum local = 7.57786e-12, global = 1.30252e-12, cumulative = -2.25412e-07
==================== Some Information 
min/max(T) = 298.15, 300
min/max(rho) = 1.16547, 1.17414
min/max(p) = 100763, 100886
min/max(U) = (0 -0.258665 -0.738673), (7.22793 0.222286 0.0334091)
====================================== 
ExecutionTime = 141.071 s  ClockTime = 144 s

Courant Number mean: 0.451117 max: 0.55272
deltaT = 5.0836
Time = 69.164s

diagonal:  Solving for rho, Initial residual = 0, Final residual = 0, No Iterations 0
DILUPBiCGStab:  Solving for Ux, Initial residual = 0.104592, Final residual = 5.73529e-08, No Iterations 3
DILUPBiCGStab:  Solving for Uy, Initial residual = 0.0250054, Final residual = 2.07062e-08, No Iterations 3
DILUPBiCGStab:  Solving for Uz, Initial residual = 0.0237101, Final residual = 4.58831e-07, No Iterations 2
DILUPBiCGStab:  Solving for O2, Initial residual = 1.43829e-05, Final residual = 1.51556e-07, No Iterations 1
DILUPBiCGStab:  Solving for CO2, Initial residual = 0, Final residual = 0, No Iterations 0
DILUPBiCGStab:  Solving for h, Initial residual = 0.00443047, Final residual = 3.4953e-07, No Iterations 1
GAMG:  Solving for p_rgh, Initial residual = 0.45032, Final residual = 0.000423425, No Iterations 18
diagonal:  Solving for rho, Initial residual = 0, Final residual = 0, No Iterations 0
time step continuity errors : sum local = 3.9087e-07, global = -5.49557e-08, cumulative = -2.80368e-07
GAMG:  Solving for p_rgh, Initial residual = 0.00464695, Final residual = 7.96842e-09, No Iterations 49
diagonal:  Solving for rho, Initial residual = 0, Final residual = 0, No Iterations 0
time step continuity errors : sum local = 5.18415e-12, global = 7.92603e-13, cumulative = -2.80367e-07
==================== Some Information 
min/max(T) = 298.15, 300
min/max(rho) = 1.16521, 1.17345
min/max(p) = 100741, 100827
min/max(U) = (0 -0.257739 -0.730852), (7.23679 0.221075 0.0379789)
====================================== 
ExecutionTime = 147.19 s  ClockTime = 150 s

Courant Number mean: 0.453364 max: 0.548283
deltaT = 5.0836
Time = 74.2476s

diagonal:  Solving for rho, Initial residual = 0, Final residual = 0, No Iterations 0
DILUPBiCGStab:  Solving for Ux, Initial residual = 0.0733189, Final residual = 4.3615e-08, No Iterations 3
DILUPBiCGStab:  Solving for Uy, Initial residual = 0.0231272, Final residual = 1.88215e-08, No Iterations 3
DILUPBiCGStab:  Solving for Uz, Initial residual = 0.0236482, Final residual = 4.28316e-07, No Iterations 2
DILUPBiCGStab:  Solving for O2, Initial residual = 1.47908e-05, Final residual = 1.48913e-07, No Iterations 1
DILUPBiCGStab:  Solving for CO2, Initial residual = 0, Final residual = 0, No Iterations 0
DILUPBiCGStab:  Solving for h, Initial residual = 0.00416368, Final residual = 2.81696e-07, No Iterations 1
GAMG:  Solving for p_rgh, Initial residual = 0.553826, Final residual = 0.000510312, No Iterations 19
diagonal:  Solving for rho, Initial residual = 0, Final residual = 0, No Iterations 0
time step continuity errors : sum local = 3.83207e-07, global = 5.17205e-08, cumulative = -2.28647e-07
GAMG:  Solving for p_rgh, Initial residual = 0.0106483, Final residual = 8.55489e-09, No Iterations 52
diagonal:  Solving for rho, Initial residual = 0, Final residual = 0, No Iterations 0
time step continuity errors : sum local = 2.76089e-12, global = -4.06715e-13, cumulative = -2.28647e-07
==================== Some Information 
min/max(T) = 298.15, 300
min/max(rho) = 1.16499, 1.17271
min/max(p) = 100722, 100763
min/max(U) = (0 -0.253571 -0.713603), (7.24126 0.216066 0.0381812)
====================================== 
ExecutionTime = 153.354 s  ClockTime = 157 s

Courant Number mean: 0.454367 max: 0.545967
deltaT = 5.0836
Time = 79.3312s

diagonal:  Solving for rho, Initial residual = 0, Final residual = 0, No Iterations 0
DILUPBiCGStab:  Solving for Ux, Initial residual = 0.0348521, Final residual = 2.41625e-08, No Iterations 3
DILUPBiCGStab:  Solving for Uy, Initial residual = 0.0218749, Final residual = 8.9294e-07, No Iterations 2
DILUPBiCGStab:  Solving for Uz, Initial residual = 0.0235507, Final residual = 3.96582e-07, No Iterations 2
DILUPBiCGStab:  Solving for O2, Initial residual = 1.44313e-05, Final residual = 1.47061e-07, No Iterations 1
DILUPBiCGStab:  Solving for CO2, Initial residual = 0, Final residual = 0, No Iterations 0
DILUPBiCGStab:  Solving for h, Initial residual = 0.00393585, Final residual = 2.92362e-07, No Iterations 1
GAMG:  Solving for p_rgh, Initial residual = 0.71554, Final residual = 0.000615753, No Iterations 19
diagonal:  Solving for rho, Initial residual = 0, Final residual = 0, No Iterations 0
time step continuity errors : sum local = 3.58157e-07, global = 4.99371e-08, cumulative = -1.7871e-07
GAMG:  Solving for p_rgh, Initial residual = 0.0460234, Final residual = 3.84628e-08, No Iterations 54
diagonal:  Solving for rho, Initial residual = 0, Final residual = 0, No Iterations 0
time step continuity errors : sum local = 2.81364e-12, global = -4.56839e-13, cumulative = -1.78711e-07
==================== Some Information 
min/max(T) = 298.15, 300
min/max(rho) = 1.1647, 1.17198
min/max(p) = 100696, 100701
min/max(U) = (0 -0.254022 -0.709303), (7.24298 0.216684 0.0348622)
====================================== 
ExecutionTime = 160.495 s  ClockTime = 164 s

Courant Number mean: 0.454155 max: 0.542987
deltaT = 5.0836
Time = 84.4148s

diagonal:  Solving for rho, Initial residual = 0, Final residual = 0, No Iterations 0
DILUPBiCGStab:  Solving for Ux, Initial residual = 0.0116446, Final residual = 6.63679e-07, No Iterations 2
DILUPBiCGStab:  Solving for Uy, Initial residual = 0.0227688, Final residual = 6.66829e-07, No Iterations 2
DILUPBiCGStab:  Solving for Uz, Initial residual = 0.0233065, Final residual = 3.72395e-07, No Iterations 2
DILUPBiCGStab:  Solving for O2, Initial residual = 1.4559e-05, Final residual = 1.5354e-07, No Iterations 1
DILUPBiCGStab:  Solving for CO2, Initial residual = 0, Final residual = 0, No Iterations 0
DILUPBiCGStab:  Solving for h, Initial residual = 0.00373503, Final residual = 2.93365e-07, No Iterations 1
GAMG:  Solving for p_rgh, Initial residual = 0.91722, Final residual = 0.000720841, No Iterations 18
diagonal:  Solving for rho, Initial residual = 0, Final residual = 0, No Iterations 0
time step continuity errors : sum local = 3.27123e-07, global = -4.64995e-08, cumulative = -2.2521e-07
GAMG:  Solving for p_rgh, Initial residual = 0.00975217, Final residual = 9.67165e-09, No Iterations 54
diagonal:  Solving for rho, Initial residual = 0, Final residual = 0, No Iterations 0
time step continuity errors : sum local = 2.79413e-12, global = -4.77865e-13, cumulative = -2.25211e-07
==================== Some Information 
min/max(T) = 298.15, 300
min/max(rho) = 1.16403, 1.17168
min/max(p) = 100639, 100675
min/max(U) = (0 -0.251243 -0.69702), (7.24385 0.213252 0.0304546)
====================================== 
ExecutionTime = 167.184 s  ClockTime = 171 s

Courant Number mean: 0.452969 max: 0.538804
deltaT = 5.0836
Time = 89.4984s

diagonal:  Solving for rho, Initial residual = 0, Final residual = 0, No Iterations 0
DILUPBiCGStab:  Solving for Ux, Initial residual = 0.0410298, Final residual = 2.60319e-08, No Iterations 3
DILUPBiCGStab:  Solving for Uy, Initial residual = 0.0233593, Final residual = 5.91189e-07, No Iterations 2
DILUPBiCGStab:  Solving for Uz, Initial residual = 0.0231581, Final residual = 3.60527e-07, No Iterations 2
DILUPBiCGStab:  Solving for O2, Initial residual = 1.47021e-05, Final residual = 1.50688e-07, No Iterations 1
DILUPBiCGStab:  Solving for CO2, Initial residual = 0, Final residual = 0, No Iterations 0
DILUPBiCGStab:  Solving for h, Initial residual = 0.00355658, Final residual = 3.08145e-07, No Iterations 1
GAMG:  Solving for p_rgh, Initial residual = 0.7418, Final residual = 0.000672587, No Iterations 15
diagonal:  Solving for rho, Initial residual = 0, Final residual = 0, No Iterations 0
time step continuity errors : sum local = 3.76941e-07, global = 5.65036e-08, cumulative = -1.68707e-07
GAMG:  Solving for p_rgh, Initial residual = 0.00439702, Final residual = 9.76511e-09, No Iterations 50
diagonal:  Solving for rho, Initial residual = 0, Final residual = 0, No Iterations 0
time step continuity errors : sum local = 4.30432e-12, global = -7.53448e-13, cumulative = -1.68708e-07
==================== Some Information 
min/max(T) = 298.15, 300
min/max(rho) = 1.16342, 1.17131
min/max(p) = 100585, 100644
min/max(U) = (0 -0.249657 -0.689565), (7.24049 0.211415 0.0319029)
====================================== 
ExecutionTime = 173.17 s  ClockTime = 177 s

Courant Number mean: 0.45118 max: 0.536631
deltaT = 5.0836
Time = 94.582s

diagonal:  Solving for rho, Initial residual = 0, Final residual = 0, No Iterations 0
DILUPBiCGStab:  Solving for Ux, Initial residual = 0.0603222, Final residual = 3.55598e-08, No Iterations 3
DILUPBiCGStab:  Solving for Uy, Initial residual = 0.0233654, Final residual = 6.74884e-07, No Iterations 2
DILUPBiCGStab:  Solving for Uz, Initial residual = 0.0229986, Final residual = 3.54574e-07, No Iterations 2
DILUPBiCGStab:  Solving for O2, Initial residual = 1.44578e-05, Final residual = 1.49248e-07, No Iterations 1
DILUPBiCGStab:  Solving for CO2, Initial residual = 0, Final residual = 0, No Iterations 0
DILUPBiCGStab:  Solving for h, Initial residual = 0.00339588, Final residual = 2.89278e-07, No Iterations 1
GAMG:  Solving for p_rgh, Initial residual = 0.652064, Final residual = 0.000560823, No Iterations 11
diagonal:  Solving for rho, Initial residual = 0, Final residual = 0, No Iterations 0
time step continuity errors : sum local = 3.56517e-07, global = 6.59126e-08, cumulative = -1.02795e-07
GAMG:  Solving for p_rgh, Initial residual = 0.00201209, Final residual = 8.89668e-09, No Iterations 47
diagonal:  Solving for rho, Initial residual = 0, Final residual = 0, No Iterations 0
time step continuity errors : sum local = 4.34978e-12, global = -8.18341e-13, cumulative = -1.02796e-07
==================== Some Information 
min/max(T) = 298.15, 300
min/max(rho) = 1.16289, 1.17086
min/max(p) = 100540, 100605
min/max(U) = (0 -0.248676 -0.680976), (7.23484 0.210129 0.0297735)
====================================== 
ExecutionTime = 178.861 s  ClockTime = 182 s

Courant Number mean: 0.449195 max: 0.532276
deltaT = 5.0836
Time = 99.6656s

diagonal:  Solving for rho, Initial residual = 0, Final residual = 0, No Iterations 0
DILUPBiCGStab:  Solving for Ux, Initial residual = 0.0662007, Final residual = 3.86293e-08, No Iterations 3
DILUPBiCGStab:  Solving for Uy, Initial residual = 0.022831, Final residual = 7.32094e-07, No Iterations 2
DILUPBiCGStab:  Solving for Uz, Initial residual = 0.022781, Final residual = 3.56478e-07, No Iterations 2
DILUPBiCGStab:  Solving for O2, Initial residual = 1.47411e-05, Final residual = 1.50792e-07, No Iterations 1
DILUPBiCGStab:  Solving for CO2, Initial residual = 0, Final residual = 0, No Iterations 0
DILUPBiCGStab:  Solving for h, Initial residual = 0.00325125, Final residual = 2.25913e-07, No Iterations 1
GAMG:  Solving for p_rgh, Initial residual = 0.62723, Final residual = 0.000558495, No Iterations 10
diagonal:  Solving for rho, Initial residual = 0, Final residual = 0, No Iterations 0
time step continuity errors : sum local = 3.67406e-07, global = -6.00188e-08, cumulative = -1.62815e-07
GAMG:  Solving for p_rgh, Initial residual = 0.00254098, Final residual = 8.23001e-09, No Iterations 48
diagonal:  Solving for rho, Initial residual = 0, Final residual = 0, No Iterations 0
time step continuity errors : sum local = 3.62513e-12, global = 6.4555e-13, cumulative = -1.62814e-07
==================== Some Information 
min/max(T) = 298.15, 300
min/max(rho) = 1.16245, 1.17034
min/max(p) = 100501, 100560
min/max(U) = (0 -0.244682 -0.671357), (7.2307 0.205299 0.0268742)
====================================== 
ExecutionTime = 184.554 s  ClockTime = 188 s

Courant Number mean: 0.44738 max: 0.529789
deltaT = 5.0836
Time = 104.749s

diagonal:  Solving for rho, Initial residual = 0, Final residual = 0, No Iterations 0
DILUPBiCGStab:  Solving for Ux, Initial residual = 0.0600258, Final residual = 3.55154e-08, No Iterations 3
DILUPBiCGStab:  Solving for Uy, Initial residual = 0.0218788, Final residual = 7.91327e-07, No Iterations 2
DILUPBiCGStab:  Solving for Uz, Initial residual = 0.0225379, Final residual = 3.64455e-07, No Iterations 2
DILUPBiCGStab:  Solving for O2, Initial residual = 1.43892e-05, Final residual = 1.48484e-07, No Iterations 1
DILUPBiCGStab:  Solving for CO2, Initial residual = 0, Final residual = 0, No Iterations 0
DILUPBiCGStab:  Solving for h, Initial residual = 0.00312117, Final residual = 3.32771e-07, No Iterations 1
GAMG:  Solving for p_rgh, Initial residual = 0.649693, Final residual = 0.000525514, No Iterations 14
diagonal:  Solving for rho, Initial residual = 0, Final residual = 0, No Iterations 0
time step continuity errors : sum local = 3.31786e-07, global = -4.71521e-08, cumulative = -2.09966e-07
GAMG:  Solving for p_rgh, Initial residual = 0.00496626, Final residual = 9.73568e-09, No Iterations 49
diagonal:  Solving for rho, Initial residual = 0, Final residual = 0, No Iterations 0
time step continuity errors : sum local = 3.13125e-12, global = -5.9782e-13, cumulative = -2.09967e-07
==================== Some Information 
min/max(T) = 298.15, 300
min/max(rho) = 1.16206, 1.16977
min/max(p) = 100468, 100511
min/max(U) = (0 -0.245415 -0.665547), (7.22733 0.2061 0.0268608)
====================================== 
ExecutionTime = 190.672 s  ClockTime = 194 s

Courant Number mean: 0.446005 max: 0.526787
deltaT = 5.0836
Time = 109.833s

diagonal:  Solving for rho, Initial residual = 0, Final residual = 0, No Iterations 0
DILUPBiCGStab:  Solving for Ux, Initial residual = 0.0454493, Final residual = 2.80365e-08, No Iterations 3
DILUPBiCGStab:  Solving for Uy, Initial residual = 0.020768, Final residual = 9.40783e-07, No Iterations 2
DILUPBiCGStab:  Solving for Uz, Initial residual = 0.0223771, Final residual = 3.76157e-07, No Iterations 2
DILUPBiCGStab:  Solving for O2, Initial residual = 1.46268e-05, Final residual = 1.48986e-07, No Iterations 1
DILUPBiCGStab:  Solving for CO2, Initial residual = 0, Final residual = 0, No Iterations 0
DILUPBiCGStab:  Solving for h, Initial residual = 0.00300491, Final residual = 2.5729e-07, No Iterations 1
GAMG:  Solving for p_rgh, Initial residual = 0.715469, Final residual = 0.000621858, No Iterations 15
diagonal:  Solving for rho, Initial residual = 0, Final residual = 0, No Iterations 0
time step continuity errors : sum local = 3.54136e-07, global = 4.88701e-08, cumulative = -1.61097e-07
GAMG:  Solving for p_rgh, Initial residual = 0.0111982, Final residual = 1.10554e-08, No Iterations 52
diagonal:  Solving for rho, Initial residual = 0, Final residual = 0, No Iterations 0
time step continuity errors : sum local = 1.85307e-12, global = 3.31109e-13, cumulative = -1.61096e-07
==================== Some Information 
min/max(T) = 298.15, 300
min/max(rho) = 1.16171, 1.16918
min/max(p) = 100438, 100460
min/max(U) = (0 -0.242781 -0.654447), (7.22474 0.202886 0.0267857)
====================================== 
ExecutionTime = 197.347 s  ClockTime = 201 s

Courant Number mean: 0.445217 max: 0.523688
deltaT = 5.0836
Time = 114.916s

diagonal:  Solving for rho, Initial residual = 0, Final residual = 0, No Iterations 0
DILUPBiCGStab:  Solving for Ux, Initial residual = 0.0269891, Final residual = 1.88681e-08, No Iterations 3
DILUPBiCGStab:  Solving for Uy, Initial residual = 0.0197848, Final residual = 1.32686e-08, No Iterations 3
DILUPBiCGStab:  Solving for Uz, Initial residual = 0.0221445, Final residual = 3.89807e-07, No Iterations 2
DILUPBiCGStab:  Solving for O2, Initial residual = 1.43929e-05, Final residual = 1.4643e-07, No Iterations 1
DILUPBiCGStab:  Solving for CO2, Initial residual = 0, Final residual = 0, No Iterations 0
DILUPBiCGStab:  Solving for h, Initial residual = 0.00290039, Final residual = 2.36416e-07, No Iterations 1
GAMG:  Solving for p_rgh, Initial residual = 0.825857, Final residual = 0.000737045, No Iterations 15
diagonal:  Solving for rho, Initial residual = 0, Final residual = 0, No Iterations 0
time step continuity errors : sum local = 3.61142e-07, global = 4.98402e-08, cumulative = -1.11256e-07
GAMG:  Solving for p_rgh, Initial residual = 0.0666673, Final residual = 5.63139e-08, No Iterations 53
diagonal:  Solving for rho, Initial residual = 0, Final residual = 0, No Iterations 0
time step continuity errors : sum local = 1.5586e-12, global = -2.73216e-13, cumulative = -1.11257e-07
==================== Some Information 
min/max(T) = 298.15, 300
min/max(rho) = 1.16136, 1.16858
min/max(p) = 100408, 100409
min/max(U) = (0 -0.241406 -0.650801), (7.2242 0.20118 0.0267896)
====================================== 
ExecutionTime = 204.047 s  ClockTime = 208 s

Courant Number mean: 0.445025 max: 0.521915
deltaT = 5.0836
Time = 120s

diagonal:  Solving for rho, Initial residual = 0, Final residual = 0, No Iterations 0
DILUPBiCGStab:  Solving for Ux, Initial residual = 0.00932379, Final residual = 3.95927e-07, No Iterations 2
DILUPBiCGStab:  Solving for Uy, Initial residual = 0.0197109, Final residual = 1.48117e-08, No Iterations 3
DILUPBiCGStab:  Solving for Uz, Initial residual = 0.0219856, Final residual = 4.05464e-07, No Iterations 2
DILUPBiCGStab:  Solving for O2, Initial residual = 1.45895e-05, Final residual = 1.48496e-07, No Iterations 1
DILUPBiCGStab:  Solving for CO2, Initial residual = 0, Final residual = 0, No Iterations 0
DILUPBiCGStab:  Solving for h, Initial residual = 0.00280724, Final residual = 2.55054e-07, No Iterations 1
GAMG:  Solving for p_rgh, Initial residual = 0.963906, Final residual = 0.000889658, No Iterations 14
diagonal:  Solving for rho, Initial residual = 0, Final residual = 0, No Iterations 0
time step continuity errors : sum local = 3.7109e-07, global = -5.2507e-08, cumulative = -1.63763e-07
GAMG:  Solving for p_rgh, Initial residual = 0.0111145, Final residual = 9.14087e-09, No Iterations 54
diagonal:  Solving for rho, Initial residual = 0, Final residual = 0, No Iterations 0
time step continuity errors : sum local = 1.29346e-12, global = 2.39611e-13, cumulative = -1.63763e-07
==================== Some Information 
min/max(T) = 298.15, 300
min/max(rho) = 1.16081, 1.16821
min/max(p) = 100360, 100377
min/max(U) = (0 -0.240476 -0.64157), (7.22637 0.200049 0.0267337)
====================================== 
ExecutionTime = 211.331 s  ClockTime = 216 s

Courant Number mean: 0.445334 max: 0.519018
deltaT = 5.45455
Time = 125.455s

diagonal:  Solving for rho, Initial residual = 0, Final residual = 0, No Iterations 0
DILUPBiCGStab:  Solving for Ux, Initial residual = 0.0153454, Final residual = 1.60099e-08, No Iterations 3
DILUPBiCGStab:  Solving for Uy, Initial residual = 0.0213839, Final residual = 2.39224e-08, No Iterations 3
DILUPBiCGStab:  Solving for Uz, Initial residual = 0.0233924, Final residual = 5.94952e-07, No Iterations 2
DILUPBiCGStab:  Solving for O2, Initial residual = 1.50979e-05, Final residual = 1.61003e-07, No Iterations 1
DILUPBiCGStab:  Solving for CO2, Initial residual = 0, Final residual = 0, No Iterations 0
DILUPBiCGStab:  Solving for h, Initial residual = 0.00291975, Final residual = 2.73166e-07, No Iterations 1
GAMG:  Solving for p_rgh, Initial residual = 0.851972, Final residual = 0.000750917, No Iterations 13
diagonal:  Solving for rho, Initial residual = 0, Final residual = 0, No Iterations 0
time step continuity errors : sum local = 3.7802e-07, global = 5.2243e-08, cumulative = -1.1152e-07
GAMG:  Solving for p_rgh, Initial residual = 0.00616468, Final residual = 9.19008e-09, No Iterations 54
diagonal:  Solving for rho, Initial residual = 0, Final residual = 0, No Iterations 0
time step continuity errors : sum local = 2.15093e-12, global = 4.02717e-13, cumulative = -1.1152e-07
==================== Some Information 
min/max(T) = 298.15, 300
min/max(rho) = 1.16024, 1.16778
min/max(p) = 100311, 100340
min/max(U) = (0 -0.236719 -0.636222), (7.22901 0.195525 0.0267099)
====================================== 
ExecutionTime = 218.772 s  ClockTime = 223 s

Courant Number mean: 0.47858 max: 0.555757
deltaT = 5.72727
Time = 131.182s

diagonal:  Solving for rho, Initial residual = 0, Final residual = 0, No Iterations 0
DILUPBiCGStab:  Solving for Ux, Initial residual = 0.0270227, Final residual = 2.92861e-08, No Iterations 3
DILUPBiCGStab:  Solving for Uy, Initial residual = 0.0223785, Final residual = 3.29493e-08, No Iterations 3
DILUPBiCGStab:  Solving for Uz, Initial residual = 0.0243646, Final residual = 7.84924e-07, No Iterations 2
DILUPBiCGStab:  Solving for O2, Initial residual = 1.55519e-05, Final residual = 1.77563e-07, No Iterations 1
DILUPBiCGStab:  Solving for CO2, Initial residual = 0, Final residual = 0, No Iterations 0
DILUPBiCGStab:  Solving for h, Initial residual = 0.00298702, Final residual = 3.51302e-07, No Iterations 1
GAMG:  Solving for p_rgh, Initial residual = 0.78736, Final residual = 0.000756443, No Iterations 8
diagonal:  Solving for rho, Initial residual = 0, Final residual = 0, No Iterations 0
time step continuity errors : sum local = 4.30526e-07, global = -6.62041e-08, cumulative = -1.77724e-07
GAMG:  Solving for p_rgh, Initial residual = 0.00373438, Final residual = 9.44839e-09, No Iterations 55
diagonal:  Solving for rho, Initial residual = 0, Final residual = 0, No Iterations 0
time step continuity errors : sum local = 2.5322e-12, global = -4.529e-13, cumulative = -1.77724e-07
==================== Some Information 
min/max(T) = 298.15, 300
min/max(rho) = 1.1597, 1.16728
min/max(p) = 100264, 100297
min/max(U) = (0 -0.236791 -0.627143), (7.23459 0.195636 0.0266555)
====================================== 
ExecutionTime = 225.442 s  ClockTime = 230 s

Courant Number mean: 0.503486 max: 0.580588
deltaT = 5.72727
Time = 136.909s

diagonal:  Solving for rho, Initial residual = 0, Final residual = 0, No Iterations 0
DILUPBiCGStab:  Solving for Ux, Initial residual = 0.0305063, Final residual = 3.16929e-08, No Iterations 3
DILUPBiCGStab:  Solving for Uy, Initial residual = 0.0220042, Final residual = 3.33738e-08, No Iterations 3
DILUPBiCGStab:  Solving for Uz, Initial residual = 0.0241409, Final residual = 8.18267e-07, No Iterations 2
DILUPBiCGStab:  Solving for O2, Initial residual = 1.54841e-05, Final residual = 1.79623e-07, No Iterations 1
DILUPBiCGStab:  Solving for CO2, Initial residual = 0, Final residual = 0, No Iterations 0
DILUPBiCGStab:  Solving for h, Initial residual = 0.00291491, Final residual = 2.45803e-07, No Iterations 1
GAMG:  Solving for p_rgh, Initial residual = 0.767314, Final residual = 0.000700412, No Iterations 8
diagonal:  Solving for rho, Initial residual = 0, Final residual = 0, No Iterations 0
time step continuity errors : sum local = 4.07489e-07, global = -6.20535e-08, cumulative = -2.39778e-07
GAMG:  Solving for p_rgh, Initial residual = 0.00391429, Final residual = 9.63438e-09, No Iterations 51
diagonal:  Solving for rho, Initial residual = 0, Final residual = 0, No Iterations 0
time step continuity errors : sum local = 2.30427e-12, global = 3.97771e-13, cumulative = -2.39777e-07
==================== Some Information 
min/max(T) = 298.15, 300
min/max(rho) = 1.1592, 1.16674
min/max(p) = 100221, 100251
min/max(U) = (0 -0.232935 -0.620971), (7.23851 0.192788 0.0266209)
====================================== 
ExecutionTime = 231.648 s  ClockTime = 236 s

Courant Number mean: 0.504342 max: 0.579604
deltaT = 5.72727
Time = 142.636s

diagonal:  Solving for rho, Initial residual = 0, Final residual = 0, No Iterations 0
DILUPBiCGStab:  Solving for Ux, Initial residual = 0.0268975, Final residual = 2.88108e-08, No Iterations 3
DILUPBiCGStab:  Solving for Uy, Initial residual = 0.0213196, Final residual = 3.31318e-08, No Iterations 3
DILUPBiCGStab:  Solving for Uz, Initial residual = 0.0239584, Final residual = 8.51888e-07, No Iterations 2
DILUPBiCGStab:  Solving for O2, Initial residual = 1.53128e-05, Final residual = 1.75291e-07, No Iterations 1
DILUPBiCGStab:  Solving for CO2, Initial residual = 0, Final residual = 0, No Iterations 0
DILUPBiCGStab:  Solving for h, Initial residual = 0.0028468, Final residual = 3.60512e-07, No Iterations 1
GAMG:  Solving for p_rgh, Initial residual = 0.786287, Final residual = 0.000678849, No Iterations 12
diagonal:  Solving for rho, Initial residual = 0, Final residual = 0, No Iterations 0
time step continuity errors : sum local = 3.84273e-07, global = -5.42591e-08, cumulative = -2.94036e-07
GAMG:  Solving for p_rgh, Initial residual = 0.00736513, Final residual = 8.32112e-09, No Iterations 57
diagonal:  Solving for rho, Initial residual = 0, Final residual = 0, No Iterations 0
time step continuity errors : sum local = 1.43393e-12, global = 2.61541e-13, cumulative = -2.94036e-07
==================== Some Information 
min/max(T) = 298.15, 300
min/max(rho) = 1.15874, 1.16617
min/max(p) = 100181, 100202
min/max(U) = (0 -0.232767 -0.612586), (7.2434 0.192264 0.0265728)
====================================== 
ExecutionTime = 239.18 s  ClockTime = 244 s

Courant Number mean: 0.504889 max: 0.57694
deltaT = 5.72727
Time = 148.364s

diagonal:  Solving for rho, Initial residual = 0, Final residual = 0, No Iterations 0
DILUPBiCGStab:  Solving for Ux, Initial residual = 0.018702, Final residual = 2.25603e-08, No Iterations 3
DILUPBiCGStab:  Solving for Uy, Initial residual = 0.0206219, Final residual = 3.25352e-08, No Iterations 3
DILUPBiCGStab:  Solving for Uz, Initial residual = 0.0237181, Final residual = 8.8101e-07, No Iterations 2
DILUPBiCGStab:  Solving for O2, Initial residual = 1.52059e-05, Final residual = 1.75169e-07, No Iterations 1
DILUPBiCGStab:  Solving for CO2, Initial residual = 0, Final residual = 0, No Iterations 0
DILUPBiCGStab:  Solving for h, Initial residual = 0.0027812, Final residual = 2.85206e-07, No Iterations 1
GAMG:  Solving for p_rgh, Initial residual = 0.835379, Final residual = 0.000710599, No Iterations 13
diagonal:  Solving for rho, Initial residual = 0, Final residual = 0, No Iterations 0
time step continuity errors : sum local = 3.77637e-07, global = 5.16972e-08, cumulative = -2.42339e-07
GAMG:  Solving for p_rgh, Initial residual = 0.0151584, Final residual = 1.49696e-08, No Iterations 56
diagonal:  Solving for rho, Initial residual = 0, Final residual = 0, No Iterations 0
time step continuity errors : sum local = 1.36929e-12, global = -2.5101e-13, cumulative = -2.42339e-07
==================== Some Information 
min/max(T) = 298.15, 300
min/max(rho) = 1.15829, 1.16559
min/max(p) = 100142, 100152
min/max(U) = (0 -0.229838 -0.606775), (7.24526 0.191706 0.0265382)
====================================== 
ExecutionTime = 246.673 s  ClockTime = 251 s

Courant Number mean: 0.505051 max: 0.575802
deltaT = 5.72727
Time = 154.091s

diagonal:  Solving for rho, Initial residual = 0, Final residual = 0, No Iterations 0
DILUPBiCGStab:  Solving for Ux, Initial residual = 0.00925935, Final residual = 6.80762e-07, No Iterations 2
DILUPBiCGStab:  Solving for Uy, Initial residual = 0.0199808, Final residual = 3.13266e-08, No Iterations 3
DILUPBiCGStab:  Solving for Uz, Initial residual = 0.0235293, Final residual = 9.06255e-07, No Iterations 2
DILUPBiCGStab:  Solving for O2, Initial residual = 1.54578e-05, Final residual = 1.76544e-07, No Iterations 1
DILUPBiCGStab:  Solving for CO2, Initial residual = 0, Final residual = 0, No Iterations 0
DILUPBiCGStab:  Solving for h, Initial residual = 0.00271732, Final residual = 1.94741e-07, No Iterations 1
GAMG:  Solving for p_rgh, Initial residual = 0.904184, Final residual = 0.00072509, No Iterations 13
diagonal:  Solving for rho, Initial residual = 0, Final residual = 0, No Iterations 0
time step continuity errors : sum local = 3.55086e-07, global = 4.88051e-08, cumulative = -1.93534e-07
GAMG:  Solving for p_rgh, Initial residual = 0.0386193, Final residual = 3.73614e-08, No Iterations 56
diagonal:  Solving for rho, Initial residual = 0, Final residual = 0, No Iterations 0
time step continuity errors : sum local = 1.2597e-12, global = -2.30402e-13, cumulative = -1.93534e-07
==================== Some Information 
min/max(T) = 298.15, 300
min/max(rho) = 1.15782, 1.16502
min/max(p) = 100102, 100103
min/max(U) = (0 -0.230593 -0.599241), (7.24663 0.191524 0.0264932)
====================================== 
ExecutionTime = 254.003 s  ClockTime = 259 s

Courant Number mean: 0.504848 max: 0.573174
deltaT = 5.72727
Time = 159.818s

diagonal:  Solving for rho, Initial residual = 0, Final residual = 0, No Iterations 0
[...]
ExecutionTime = 41817.5 s  ClockTime = 42010 s

Courant Number mean: 0.514616 max: 0.583489
deltaT = 6.31579
Time = 7130.53s

diagonal:  Solving for rho, Initial residual = 0, Final residual = 0, No Iterations 0
DILUPBiCGStab:  Solving for Ux, Initial residual = 1.70486e-05, Final residual = 2.67039e-07, No Iterations 1
DILUPBiCGStab:  Solving for Uy, Initial residual = 0.00315463, Final residual = 1.83243e-07, No Iterations 2
DILUPBiCGStab:  Solving for Uz, Initial residual = 0.00200528, Final residual = 2.3377e-07, No Iterations 2
DILUPBiCGStab:  Solving for O2, Initial residual = 1.53952e-05, Final residual = 1.63193e-07, No Iterations 1
DILUPBiCGStab:  Solving for CO2, Initial residual = 0, Final residual = 0, No Iterations 0
DILUPBiCGStab:  Solving for h, Initial residual = 3.51093e-05, Final residual = 2.77585e-07, No Iterations 1
GAMG:  Solving for p_rgh, Initial residual = 0.981404, Final residual = 9.74383e-05, No Iterations 1
diagonal:  Solving for rho, Initial residual = 0, Final residual = 0, No Iterations 0
time step continuity errors : sum local = 1.46254e-09, global = 2.95691e-14, cumulative = 2.5198e-07
GAMG:  Solving for p_rgh, Initial residual = 0.0232538, Final residual = 2.08725e-07, No Iterations 1000
diagonal:  Solving for rho, Initial residual = 0, Final residual = 0, No Iterations 0
time step continuity errors : sum local = 1.78804e-13, global = -3.53395e-16, cumulative = 2.5198e-07
==================== Some Information 
min/max(T) = 298.15, 300
min/max(rho) = 1.01565, 1.02195
min/max(p) = 87810, 87810.1
min/max(U) = (0 -3.68693e-06 -0.00166789), (7.22011 4.0237e-05 0)
====================================== 
ExecutionTime = 41864.1 s  ClockTime = 42057 s

Courant Number mean: 0.514613 max: 0.583485
deltaT = 6.31579
Time = 7136.84s

diagonal:  Solving for rho, Initial residual = 0, Final residual = 0, No Iterations 0
DILUPBiCGStab:  Solving for Ux, Initial residual = 1.69925e-05, Final residual = 2.66139e-07, No Iterations 1
DILUPBiCGStab:  Solving for Uy, Initial residual = 0.00315198, Final residual = 1.83623e-07, No Iterations 2
DILUPBiCGStab:  Solving for Uz, Initial residual = 0.00200478, Final residual = 2.33684e-07, No Iterations 2
DILUPBiCGStab:  Solving for O2, Initial residual = 1.53669e-05, Final residual = 1.63214e-07, No Iterations 1
DILUPBiCGStab:  Solving for CO2, Initial residual = 0, Final residual = 0, No Iterations 0
DILUPBiCGStab:  Solving for h, Initial residual = 3.50911e-05, Final residual = 2.77293e-07, No Iterations 1
GAMG:  Solving for p_rgh, Initial residual = 0.9814, Final residual = 9.73786e-05, No Iterations 1
diagonal:  Solving for rho, Initial residual = 0, Final residual = 0, No Iterations 0
time step continuity errors : sum local = 1.45768e-09, global = 3.00048e-14, cumulative = 2.5198e-07
GAMG:  Solving for p_rgh, Initial residual = 0.0232337, Final residual = 2.07391e-07, No Iterations 1000
diagonal:  Solving for rho, Initial residual = 0, Final residual = 0, No Iterations 0
time step continuity errors : sum local = 1.78511e-13, global = 7.13546e-17, cumulative = 2.5198e-07
==================== Some Information 
min/max(T) = 298.15, 300
min/max(rho) = 1.01564, 1.02194
min/max(p) = 87808.7, 87808.8
min/max(U) = (0 -3.69266e-06 -0.00166465), (7.22011 3.97929e-05 0)
====================================== 
ExecutionTime = 41910.6 s  ClockTime = 42103 s

Courant Number mean: 0.51461 max: 0.583482
deltaT = 6.31579
Time = 7143.16s

diagonal:  Solving for rho, Initial residual = 0, Final residual = 0, No Iterations 0
DILUPBiCGStab:  Solving for Ux, Initial residual = 1.69366e-05, Final residual = 2.65243e-07, No Iterations 1
DILUPBiCGStab:  Solving for Uy, Initial residual = 0.00314999, Final residual = 1.84084e-07, No Iterations 2
DILUPBiCGStab:  Solving for Uz, Initial residual = 0.00200428, Final residual = 2.33599e-07, No Iterations 2
DILUPBiCGStab:  Solving for O2, Initial residual = 1.53579e-05, Final residual = 1.62522e-07, No Iterations 1
DILUPBiCGStab:  Solving for CO2, Initial residual = 0, Final residual = 0, No Iterations 0
DILUPBiCGStab:  Solving for h, Initial residual = 3.50731e-05, Final residual = 2.77032e-07, No Iterations 1
GAMG:  Solving for p_rgh, Initial residual = 0.981396, Final residual = 9.73192e-05, No Iterations 1
diagonal:  Solving for rho, Initial residual = 0, Final residual = 0, No Iterations 0
time step continuity errors : sum local = 1.45285e-09, global = 2.98466e-14, cumulative = 2.5198e-07
GAMG:  Solving for p_rgh, Initial residual = 0.0232137, Final residual = 2.09048e-07, No Iterations 1000
diagonal:  Solving for rho, Initial residual = 0, Final residual = 0, No Iterations 0
time step continuity errors : sum local = 1.78775e-13, global = 7.42567e-16, cumulative = 2.5198e-07
==================== Some Information 
min/max(T) = 298.15, 300
min/max(rho) = 1.01562, 1.02192
min/max(p) = 87807.4, 87807.5
min/max(U) = (0 -3.69763e-06 -0.00166142), (7.22011 3.93516e-05 0)
====================================== 
ExecutionTime = 41957 s  ClockTime = 42150 s

Courant Number mean: 0.514607 max: 0.583478
deltaT = 6.31579
Time = 7149.47s

diagonal:  Solving for rho, Initial residual = 0, Final residual = 0, No Iterations 0
DILUPBiCGStab:  Solving for Ux, Initial residual = 1.68809e-05, Final residual = 2.6435e-07, No Iterations 1
DILUPBiCGStab:  Solving for Uy, Initial residual = 0.00314846, Final residual = 1.84607e-07, No Iterations 2
DILUPBiCGStab:  Solving for Uz, Initial residual = 0.00200379, Final residual = 2.33513e-07, No Iterations 2
DILUPBiCGStab:  Solving for O2, Initial residual = 1.53694e-05, Final residual = 1.63314e-07, No Iterations 1
DILUPBiCGStab:  Solving for CO2, Initial residual = 0, Final residual = 0, No Iterations 0
DILUPBiCGStab:  Solving for h, Initial residual = 3.50552e-05, Final residual = 2.76774e-07, No Iterations 1
GAMG:  Solving for p_rgh, Initial residual = 0.981392, Final residual = 9.72602e-05, No Iterations 1
diagonal:  Solving for rho, Initial residual = 0, Final residual = 0, No Iterations 0
time step continuity errors : sum local = 1.44804e-09, global = 2.9875e-14, cumulative = 2.5198e-07
GAMG:  Solving for p_rgh, Initial residual = 0.0231937, Final residual = 2.09486e-07, No Iterations 1000
diagonal:  Solving for rho, Initial residual = 0, Final residual = 0, No Iterations 0
time step continuity errors : sum local = 1.78723e-13, global = 7.44523e-16, cumulative = 2.5198e-07
==================== Some Information 
min/max(T) = 298.15, 300
min/max(rho) = 1.01561, 1.02191
min/max(p) = 87806.2, 87806.2
min/max(U) = (0 -3.70182e-06 -0.0016582), (7.22011 3.89129e-05 0)
====================================== 
ExecutionTime = 42003.3 s  ClockTime = 42196 s

Courant Number mean: 0.514604 max: 0.583475
deltaT = 6.31579
Time = 7155.79s

diagonal:  Solving for rho, Initial residual = 0, Final residual = 0, No Iterations 0
DILUPBiCGStab:  Solving for Ux, Initial residual = 1.68255e-05, Final residual = 2.6346e-07, No Iterations 1
DILUPBiCGStab:  Solving for Uy, Initial residual = 0.00314681, Final residual = 1.85103e-07, No Iterations 2
DILUPBiCGStab:  Solving for Uz, Initial residual = 0.0020033, Final residual = 2.33428e-07, No Iterations 2
DILUPBiCGStab:  Solving for O2, Initial residual = 1.53235e-05, Final residual = 1.63008e-07, No Iterations 1
DILUPBiCGStab:  Solving for CO2, Initial residual = 0, Final residual = 0, No Iterations 0
DILUPBiCGStab:  Solving for h, Initial residual = 3.50367e-05, Final residual = 2.76504e-07, No Iterations 1
GAMG:  Solving for p_rgh, Initial residual = 0.981388, Final residual = 9.72012e-05, No Iterations 1
diagonal:  Solving for rho, Initial residual = 0, Final residual = 0, No Iterations 0
time step continuity errors : sum local = 1.44325e-09, global = 3.06324e-14, cumulative = 2.5198e-07
GAMG:  Solving for p_rgh, Initial residual = 0.0231737, Final residual = 2.10144e-07, No Iterations 1000
diagonal:  Solving for rho, Initial residual = 0, Final residual = 0, No Iterations 0
time step continuity errors : sum local = 1.78803e-13, global = 1.55361e-15, cumulative = 2.5198e-07
==================== Some Information 
min/max(T) = 298.15, 300
min/max(rho) = 1.01559, 1.02189
min/max(p) = 87804.9, 87805
min/max(U) = (0 -3.70896e-06 -0.00165498), (7.22011 3.84771e-05 0)
====================================== 
ExecutionTime = 42050.1 s  ClockTime = 42243 s

Courant Number mean: 0.514601 max: 0.583472
deltaT = 6.31579
Time = 7162.11s

diagonal:  Solving for rho, Initial residual = 0, Final residual = 0, No Iterations 0
DILUPBiCGStab:  Solving for Ux, Initial residual = 1.67702e-05, Final residual = 2.62574e-07, No Iterations 1
DILUPBiCGStab:  Solving for Uy, Initial residual = 0.0031454, Final residual = 1.85627e-07, No Iterations 2
DILUPBiCGStab:  Solving for Uz, Initial residual = 0.00200282, Final residual = 2.33342e-07, No Iterations 2
DILUPBiCGStab:  Solving for O2, Initial residual = 1.53024e-05, Final residual = 1.62945e-07, No Iterations 1
DILUPBiCGStab:  Solving for CO2, Initial residual = 0, Final residual = 0, No Iterations 0
DILUPBiCGStab:  Solving for h, Initial residual = 3.50184e-05, Final residual = 2.76208e-07, No Iterations 1
GAMG:  Solving for p_rgh, Initial residual = 0.981384, Final residual = 9.71428e-05, No Iterations 1
diagonal:  Solving for rho, Initial residual = 0, Final residual = 0, No Iterations 0
time step continuity errors : sum local = 1.43849e-09, global = 3.12682e-14, cumulative = 2.5198e-07
GAMG:  Solving for p_rgh, Initial residual = 0.0231537, Final residual = 2.07187e-07, No Iterations 1000
diagonal:  Solving for rho, Initial residual = 0, Final residual = 0, No Iterations 0
time step continuity errors : sum local = 1.78552e-13, global = 2.75146e-15, cumulative = 2.5198e-07
==================== Some Information 
min/max(T) = 298.15, 300
min/max(rho) = 1.01558, 1.02188
min/max(p) = 87803.6, 87803.7
min/max(U) = (0 -3.71731e-06 -0.00165177), (7.22011 3.80439e-05 0)
====================================== 
ExecutionTime = 42096.5 s  ClockTime = 42290 s

Courant Number mean: 0.514598 max: 0.583468
deltaT = 6.31579
Time = 7168.42s

diagonal:  Solving for rho, Initial residual = 0, Final residual = 0, No Iterations 0
DILUPBiCGStab:  Solving for Ux, Initial residual = 1.67151e-05, Final residual = 2.61692e-07, No Iterations 1
DILUPBiCGStab:  Solving for Uy, Initial residual = 0.00314419, Final residual = 1.86174e-07, No Iterations 2
DILUPBiCGStab:  Solving for Uz, Initial residual = 0.00200234, Final residual = 2.33257e-07, No Iterations 2
DILUPBiCGStab:  Solving for O2, Initial residual = 1.53056e-05, Final residual = 1.63242e-07, No Iterations 1
DILUPBiCGStab:  Solving for CO2, Initial residual = 0, Final residual = 0, No Iterations 0
DILUPBiCGStab:  Solving for h, Initial residual = 3.5e-05, Final residual = 2.75926e-07, No Iterations 1
GAMG:  Solving for p_rgh, Initial residual = 0.98138, Final residual = 9.70843e-05, No Iterations 1
diagonal:  Solving for rho, Initial residual = 0, Final residual = 0, No Iterations 0
time step continuity errors : sum local = 1.43374e-09, global = 3.17967e-14, cumulative = 2.5198e-07
GAMG:  Solving for p_rgh, Initial residual = 0.0231337, Final residual = 2.11279e-07, No Iterations 1000
diagonal:  Solving for rho, Initial residual = 0, Final residual = 0, No Iterations 0
time step continuity errors : sum local = 1.78636e-13, global = 3.00998e-15, cumulative = 2.5198e-07
==================== Some Information 
min/max(T) = 298.15, 300
min/max(rho) = 1.01556, 1.02186
min/max(p) = 87802.3, 87802.4
min/max(U) = (0 -3.72484e-06 -0.00164857), (7.22011 3.76137e-05 0)
====================================== 
ExecutionTime = 42143 s  ClockTime = 42337 s

Courant Number mean: 0.514596 max: 0.583465
deltaT = 6.31579
Time = 7174.74s

diagonal:  Solving for rho, Initial residual = 0, Final residual = 0, No Iterations 0
DILUPBiCGStab:  Solving for Ux, Initial residual = 1.66603e-05, Final residual = 2.60812e-07, No Iterations 1
DILUPBiCGStab:  Solving for Uy, Initial residual = 0.00314332, Final residual = 1.86772e-07, No Iterations 2
DILUPBiCGStab:  Solving for Uz, Initial residual = 0.00200186, Final residual = 2.33171e-07, No Iterations 2
DILUPBiCGStab:  Solving for O2, Initial residual = 1.53816e-05, Final residual = 1.63078e-07, No Iterations 1
DILUPBiCGStab:  Solving for CO2, Initial residual = 0, Final residual = 0, No Iterations 0
DILUPBiCGStab:  Solving for h, Initial residual = 3.49818e-05, Final residual = 2.75663e-07, No Iterations 1
GAMG:  Solving for p_rgh, Initial residual = 0.981376, Final residual = 9.70262e-05, No Iterations 1
diagonal:  Solving for rho, Initial residual = 0, Final residual = 0, No Iterations 0
time step continuity errors : sum local = 1.42902e-09, global = 3.33211e-14, cumulative = 2.5198e-07
GAMG:  Solving for p_rgh, Initial residual = 0.0231138, Final residual = 2.09665e-07, No Iterations 1000
diagonal:  Solving for rho, Initial residual = 0, Final residual = 0, No Iterations 0
time step continuity errors : sum local = 1.78729e-13, global = 4.09646e-15, cumulative = 2.5198e-07
==================== Some Information 
min/max(T) = 298.15, 300
min/max(rho) = 1.01555, 1.02185
min/max(p) = 87801.1, 87801.1
min/max(U) = (0 -3.73165e-06 -0.00164537), (7.22011 3.71864e-05 0)
====================================== 
ExecutionTime = 42189.2 s  ClockTime = 42383 s

Courant Number mean: 0.514593 max: 0.583462
deltaT = 6.31579
Time = 7181.05s

diagonal:  Solving for rho, Initial residual = 0, Final residual = 0, No Iterations 0
DILUPBiCGStab:  Solving for Ux, Initial residual = 1.66056e-05, Final residual = 2.59937e-07, No Iterations 1
DILUPBiCGStab:  Solving for Uy, Initial residual = 0.0031432, Final residual = 1.87438e-07, No Iterations 2
DILUPBiCGStab:  Solving for Uz, Initial residual = 0.00200139, Final residual = 2.33085e-07, No Iterations 2
DILUPBiCGStab:  Solving for O2, Initial residual = 1.53902e-05, Final residual = 1.65861e-07, No Iterations 1
DILUPBiCGStab:  Solving for CO2, Initial residual = 0, Final residual = 0, No Iterations 0
DILUPBiCGStab:  Solving for h, Initial residual = 3.49636e-05, Final residual = 2.75395e-07, No Iterations 1
GAMG:  Solving for p_rgh, Initial residual = 0.981372, Final residual = 9.69684e-05, No Iterations 1
diagonal:  Solving for rho, Initial residual = 0, Final residual = 0, No Iterations 0
time step continuity errors : sum local = 1.42431e-09, global = 3.40353e-14, cumulative = 2.5198e-07
GAMG:  Solving for p_rgh, Initial residual = 0.0230938, Final residual = 2.11083e-07, No Iterations 1000
diagonal:  Solving for rho, Initial residual = 0, Final residual = 0, No Iterations 0
time step continuity errors : sum local = 1.78487e-13, global = 4.36126e-15, cumulative = 2.5198e-07
==================== Some Information 
min/max(T) = 298.15, 300
min/max(rho) = 1.01553, 1.02183
min/max(p) = 87799.8, 87799.9
min/max(U) = (0 -3.73763e-06 -0.00164218), (7.22011 3.67619e-05 0)
====================================== 
ExecutionTime = 42236 s  ClockTime = 42430 s

Courant Number mean: 0.51459 max: 0.583458
deltaT = 6.31579
Time = 7187.37s

diagonal:  Solving for rho, Initial residual = 0, Final residual = 0, No Iterations 0
DILUPBiCGStab:  Solving for Ux, Initial residual = 1.65511e-05, Final residual = 2.59064e-07, No Iterations 1
DILUPBiCGStab:  Solving for Uy, Initial residual = 0.00314314, Final residual = 1.88086e-07, No Iterations 2
DILUPBiCGStab:  Solving for Uz, Initial residual = 0.00200093, Final residual = 2.33e-07, No Iterations 2
DILUPBiCGStab:  Solving for O2, Initial residual = 1.53686e-05, Final residual = 1.60923e-07, No Iterations 1
DILUPBiCGStab:  Solving for CO2, Initial residual = 0, Final residual = 0, No Iterations 0
DILUPBiCGStab:  Solving for h, Initial residual = 3.49451e-05, Final residual = 2.75123e-07, No Iterations 1
GAMG:  Solving for p_rgh, Initial residual = 0.981368, Final residual = 9.69108e-05, No Iterations 1
diagonal:  Solving for rho, Initial residual = 0, Final residual = 0, No Iterations 0
time step continuity errors : sum local = 1.41963e-09, global = 3.7036e-14, cumulative = 2.5198e-07
GAMG:  Solving for p_rgh, Initial residual = 0.0230739, Final residual = 2.12854e-07, No Iterations 1000
diagonal:  Solving for rho, Initial residual = 0, Final residual = 0, No Iterations 0
time step continuity errors : sum local = 1.78444e-13, global = 9.06991e-15, cumulative = 2.5198e-07
==================== Some Information 
min/max(T) = 298.15, 300
min/max(rho) = 1.01552, 1.02182
min/max(p) = 87798.5, 87798.6
min/max(U) = (0 -3.74284e-06 -0.001639), (7.22011 3.63405e-05 0)
====================================== 
ExecutionTime = 42282.4 s  ClockTime = 42477 s

Courant Number mean: 0.514587 max: 0.583455
deltaT = 6.31579
Time = 7193.68s

diagonal:  Solving for rho, Initial residual = 0, Final residual = 0, No Iterations 0
DILUPBiCGStab:  Solving for Ux, Initial residual = 1.64969e-05, Final residual = 2.58195e-07, No Iterations 1
DILUPBiCGStab:  Solving for Uy, Initial residual = 0.00314377, Final residual = 1.88855e-07, No Iterations 2
DILUPBiCGStab:  Solving for Uz, Initial residual = 0.00200046, Final residual = 2.32914e-07, No Iterations 2
DILUPBiCGStab:  Solving for O2, Initial residual = 1.53882e-05, Final residual = 1.61131e-07, No Iterations 1
DILUPBiCGStab:  Solving for CO2, Initial residual = 0, Final residual = 0, No Iterations 0
DILUPBiCGStab:  Solving for h, Initial residual = 3.49267e-05, Final residual = 2.74847e-07, No Iterations 1
GAMG:  Solving for p_rgh, Initial residual = 0.981364, Final residual = 9.68535e-05, No Iterations 1
diagonal:  Solving for rho, Initial residual = 0, Final residual = 0, No Iterations 0
time step continuity errors : sum local = 1.41497e-09, global = 3.95308e-14, cumulative = 2.5198e-07
GAMG:  Solving for p_rgh, Initial residual = 0.0230541, Final residual = 2.11564e-07, No Iterations 1000
diagonal:  Solving for rho, Initial residual = 0, Final residual = 0, No Iterations 0
time step continuity errors : sum local = 1.78585e-13, global = 1.18764e-14, cumulative = 2.51981e-07
==================== Some Information 
min/max(T) = 298.15, 300
min/max(rho) = 1.0155, 1.0218
min/max(p) = 87797.3, 87797.3
min/max(U) = (0 -3.74728e-06 -0.00163582), (7.22011 3.5922e-05 0)
====================================== 
ExecutionTime = 42329.3 s  ClockTime = 42524 s

Courant Number mean: 0.514584 max: 0.583452
deltaT = 6.31579
Time = 7200s

diagonal:  Solving for rho, Initial residual = 0, Final residual = 0, No Iterations 0
DILUPBiCGStab:  Solving for Ux, Initial residual = 1.64429e-05, Final residual = 2.57329e-07, No Iterations 1
DILUPBiCGStab:  Solving for Uy, Initial residual = 0.00314442, Final residual = 1.89643e-07, No Iterations 2
DILUPBiCGStab:  Solving for Uz, Initial residual = 0.002, Final residual = 2.32828e-07, No Iterations 2
DILUPBiCGStab:  Solving for O2, Initial residual = 1.53995e-05, Final residual = 1.63459e-07, No Iterations 1
DILUPBiCGStab:  Solving for CO2, Initial residual = 0, Final residual = 0, No Iterations 0
DILUPBiCGStab:  Solving for h, Initial residual = 3.49085e-05, Final residual = 2.74567e-07, No Iterations 1
GAMG:  Solving for p_rgh, Initial residual = 0.98136, Final residual = 9.67963e-05, No Iterations 1
diagonal:  Solving for rho, Initial residual = 0, Final residual = 0, No Iterations 0
time step continuity errors : sum local = 1.41033e-09, global = 3.21374e-14, cumulative = 2.51981e-07
GAMG:  Solving for p_rgh, Initial residual = 0.0230342, Final residual = 2.15329e-07, No Iterations 1000
diagonal:  Solving for rho, Initial residual = 0, Final residual = 0, No Iterations 0
time step continuity errors : sum local = 1.7867e-13, global = 3.2948e-15, cumulative = 2.51981e-07
==================== Some Information 
min/max(T) = 298.15, 300
min/max(rho) = 1.01549, 1.02179
min/max(p) = 87796, 87796.1
min/max(U) = (0 -3.751e-06 -0.00163265), (7.22011 3.55065e-05 0)
====================================== 
ExecutionTime = 42376 s  ClockTime = 42572 s

End

Finalising parallel run
